# WEL package for  MODFLOW-2005, generated by Flopy.
        30      1001 
        30         0 # stress period 1
         9        50        35      -7.1641793
        10        50        35      -11.940298
        11        50        35      -11.940298
        12        50        35      -11.940298
        13        50        35      -11.940298
        14        50        35       -5.970149
        15        50        35       -5.970149
        16        50        35       -5.970149
        17        50        35       -5.970149
        18        50        35      -1.1940298
         9        35        31      -7.1641793
        10        35        31      -11.940298
        11        35        31      -11.940298
        12        35        31      -11.940298
        13        35        31      -11.940298
        14        35        31       -5.970149
        15        35        31       -5.970149
        16        35        31       -5.970149
        17        35        31       -5.970149
        18        35        31      -1.1940298
         9        39        26      -7.1641793
        10        39        26      -11.940298
        11        39        26      -11.940298
        12        39        26      -11.940298
        13        39        26      -11.940298
        14        39        26       -5.970149
        15        39        26       -5.970149
        16        39        26       -5.970149
        17        39        26       -5.970149
        18        39        26      -1.1940298
