# GMG package for  MODFLOW-2005, generated by Flopy.
1e-05 30 1e-05 50
1.0 0 0 0
0 0 
1.0
