# HFB6 package for  MODFLOW-2005, generated by Flopy.
         0         0      3040
         1        29        26        29        27        0.001
         2        29        26        29        27        0.001
         3        29        26        29        27        0.001
         4        29        26        29        27        0.001
         5        29        26        29        27        0.001
         6        29        26        29        27        0.001
         7        29        26        29        27        0.001
         8        29        26        29        27        0.001
         9        29        26        29        27        0.001
        10        29        26        29        27        0.001
        11        29        26        29        27        0.001
        12        29        26        29        27        0.001
        13        29        26        29        27        0.001
        14        29        26        29        27        0.001
        15        29        26        29        27        0.001
        16        29        26        29        27        0.001
        17        29        26        29        27        0.001
        18        29        26        29        27        0.001
        19        29        26        29        27        0.001
        20        29        26        29        27        0.001
         1        28        27        29        27        0.001
         2        28        27        29        27        0.001
         3        28        27        29        27        0.001
         4        28        27        29        27        0.001
         5        28        27        29        27        0.001
         6        28        27        29        27        0.001
         7        28        27        29        27        0.001
         8        28        27        29        27        0.001
         9        28        27        29        27        0.001
        10        28        27        29        27        0.001
        11        28        27        29        27        0.001
        12        28        27        29        27        0.001
        13        28        27        29        27        0.001
        14        28        27        29        27        0.001
        15        28        27        29        27        0.001
        16        28        27        29        27        0.001
        17        28        27        29        27        0.001
        18        28        27        29        27        0.001
        19        28        27        29        27        0.001
        20        28        27        29        27        0.001
         1        28        28        29        28        0.001
         2        28        28        29        28        0.001
         3        28        28        29        28        0.001
         4        28        28        29        28        0.001
         5        28        28        29        28        0.001
         6        28        28        29        28        0.001
         7        28        28        29        28        0.001
         8        28        28        29        28        0.001
         9        28        28        29        28        0.001
        10        28        28        29        28        0.001
        11        28        28        29        28        0.001
        12        28        28        29        28        0.001
        13        28        28        29        28        0.001
        14        28        28        29        28        0.001
        15        28        28        29        28        0.001
        16        28        28        29        28        0.001
        17        28        28        29        28        0.001
        18        28        28        29        28        0.001
        19        28        28        29        28        0.001
        20        28        28        29        28        0.001
         1        29        29        29        30        0.001
         2        29        29        29        30        0.001
         3        29        29        29        30        0.001
         4        29        29        29        30        0.001
         5        29        29        29        30        0.001
         6        29        29        29        30        0.001
         7        29        29        29        30        0.001
         8        29        29        29        30        0.001
         9        29        29        29        30        0.001
        10        29        29        29        30        0.001
        11        29        29        29        30        0.001
        12        29        29        29        30        0.001
        13        29        29        29        30        0.001
        14        29        29        29        30        0.001
        15        29        29        29        30        0.001
        16        29        29        29        30        0.001
        17        29        29        29        30        0.001
        18        29        29        29        30        0.001
        19        29        29        29        30        0.001
        20        29        29        29        30        0.001
         1        28        29        29        29        0.001
         2        28        29        29        29        0.001
         3        28        29        29        29        0.001
         4        28        29        29        29        0.001
         5        28        29        29        29        0.001
         6        28        29        29        29        0.001
         7        28        29        29        29        0.001
         8        28        29        29        29        0.001
         9        28        29        29        29        0.001
        10        28        29        29        29        0.001
        11        28        29        29        29        0.001
        12        28        29        29        29        0.001
        13        28        29        29        29        0.001
        14        28        29        29        29        0.001
        15        28        29        29        29        0.001
        16        28        29        29        29        0.001
        17        28        29        29        29        0.001
        18        28        29        29        29        0.001
        19        28        29        29        29        0.001
        20        28        29        29        29        0.001
         1        29        33        29        34        0.001
         2        29        33        29        34        0.001
         3        29        33        29        34        0.001
         4        29        33        29        34        0.001
         5        29        33        29        34        0.001
         6        29        33        29        34        0.001
         7        29        33        29        34        0.001
         8        29        33        29        34        0.001
         9        29        33        29        34        0.001
        10        29        33        29        34        0.001
        11        29        33        29        34        0.001
        12        29        33        29        34        0.001
        13        29        33        29        34        0.001
        14        29        33        29        34        0.001
        15        29        33        29        34        0.001
        16        29        33        29        34        0.001
        17        29        33        29        34        0.001
        18        29        33        29        34        0.001
        19        29        33        29        34        0.001
        20        29        33        29        34        0.001
         1        28        34        29        34        0.001
         2        28        34        29        34        0.001
         3        28        34        29        34        0.001
         4        28        34        29        34        0.001
         5        28        34        29        34        0.001
         6        28        34        29        34        0.001
         7        28        34        29        34        0.001
         8        28        34        29        34        0.001
         9        28        34        29        34        0.001
        10        28        34        29        34        0.001
        11        28        34        29        34        0.001
        12        28        34        29        34        0.001
        13        28        34        29        34        0.001
        14        28        34        29        34        0.001
        15        28        34        29        34        0.001
        16        28        34        29        34        0.001
        17        28        34        29        34        0.001
        18        28        34        29        34        0.001
        19        28        34        29        34        0.001
        20        28        34        29        34        0.001
         1        28        35        29        35        0.001
         2        28        35        29        35        0.001
         3        28        35        29        35        0.001
         4        28        35        29        35        0.001
         5        28        35        29        35        0.001
         6        28        35        29        35        0.001
         7        28        35        29        35        0.001
         8        28        35        29        35        0.001
         9        28        35        29        35        0.001
        10        28        35        29        35        0.001
        11        28        35        29        35        0.001
        12        28        35        29        35        0.001
        13        28        35        29        35        0.001
        14        28        35        29        35        0.001
        15        28        35        29        35        0.001
        16        28        35        29        35        0.001
        17        28        35        29        35        0.001
        18        28        35        29        35        0.001
        19        28        35        29        35        0.001
        20        28        35        29        35        0.001
         1        29        36        29        37        0.001
         2        29        36        29        37        0.001
         3        29        36        29        37        0.001
         4        29        36        29        37        0.001
         5        29        36        29        37        0.001
         6        29        36        29        37        0.001
         7        29        36        29        37        0.001
         8        29        36        29        37        0.001
         9        29        36        29        37        0.001
        10        29        36        29        37        0.001
        11        29        36        29        37        0.001
        12        29        36        29        37        0.001
        13        29        36        29        37        0.001
        14        29        36        29        37        0.001
        15        29        36        29        37        0.001
        16        29        36        29        37        0.001
        17        29        36        29        37        0.001
        18        29        36        29        37        0.001
        19        29        36        29        37        0.001
        20        29        36        29        37        0.001
         1        28        36        29        36        0.001
         2        28        36        29        36        0.001
         3        28        36        29        36        0.001
         4        28        36        29        36        0.001
         5        28        36        29        36        0.001
         6        28        36        29        36        0.001
         7        28        36        29        36        0.001
         8        28        36        29        36        0.001
         9        28        36        29        36        0.001
        10        28        36        29        36        0.001
        11        28        36        29        36        0.001
        12        28        36        29        36        0.001
        13        28        36        29        36        0.001
        14        28        36        29        36        0.001
        15        28        36        29        36        0.001
        16        28        36        29        36        0.001
        17        28        36        29        36        0.001
        18        28        36        29        36        0.001
        19        28        36        29        36        0.001
        20        28        36        29        36        0.001
         1        30        26        30        27        0.001
         2        30        26        30        27        0.001
         3        30        26        30        27        0.001
         4        30        26        30        27        0.001
         5        30        26        30        27        0.001
         6        30        26        30        27        0.001
         7        30        26        30        27        0.001
         8        30        26        30        27        0.001
         9        30        26        30        27        0.001
        10        30        26        30        27        0.001
        11        30        26        30        27        0.001
        12        30        26        30        27        0.001
        13        30        26        30        27        0.001
        14        30        26        30        27        0.001
        15        30        26        30        27        0.001
        16        30        26        30        27        0.001
        17        30        26        30        27        0.001
        18        30        26        30        27        0.001
        19        30        26        30        27        0.001
        20        30        26        30        27        0.001
         1        29        30        30        30        0.001
         2        29        30        30        30        0.001
         3        29        30        30        30        0.001
         4        29        30        30        30        0.001
         5        29        30        30        30        0.001
         6        29        30        30        30        0.001
         7        29        30        30        30        0.001
         8        29        30        30        30        0.001
         9        29        30        30        30        0.001
        10        29        30        30        30        0.001
        11        29        30        30        30        0.001
        12        29        30        30        30        0.001
        13        29        30        30        30        0.001
        14        29        30        30        30        0.001
        15        29        30        30        30        0.001
        16        29        30        30        30        0.001
        17        29        30        30        30        0.001
        18        29        30        30        30        0.001
        19        29        30        30        30        0.001
        20        29        30        30        30        0.001
         1        29        31        30        31        0.001
         2        29        31        30        31        0.001
         3        29        31        30        31        0.001
         4        29        31        30        31        0.001
         5        29        31        30        31        0.001
         6        29        31        30        31        0.001
         7        29        31        30        31        0.001
         8        29        31        30        31        0.001
         9        29        31        30        31        0.001
        10        29        31        30        31        0.001
        11        29        31        30        31        0.001
        12        29        31        30        31        0.001
        13        29        31        30        31        0.001
        14        29        31        30        31        0.001
        15        29        31        30        31        0.001
        16        29        31        30        31        0.001
        17        29        31        30        31        0.001
        18        29        31        30        31        0.001
        19        29        31        30        31        0.001
        20        29        31        30        31        0.001
         1        29        32        30        32        0.001
         2        29        32        30        32        0.001
         3        29        32        30        32        0.001
         4        29        32        30        32        0.001
         5        29        32        30        32        0.001
         6        29        32        30        32        0.001
         7        29        32        30        32        0.001
         8        29        32        30        32        0.001
         9        29        32        30        32        0.001
        10        29        32        30        32        0.001
        11        29        32        30        32        0.001
        12        29        32        30        32        0.001
        13        29        32        30        32        0.001
        14        29        32        30        32        0.001
        15        29        32        30        32        0.001
        16        29        32        30        32        0.001
        17        29        32        30        32        0.001
        18        29        32        30        32        0.001
        19        29        32        30        32        0.001
        20        29        32        30        32        0.001
         1        29        33        30        33        0.001
         2        29        33        30        33        0.001
         3        29        33        30        33        0.001
         4        29        33        30        33        0.001
         5        29        33        30        33        0.001
         6        29        33        30        33        0.001
         7        29        33        30        33        0.001
         8        29        33        30        33        0.001
         9        29        33        30        33        0.001
        10        29        33        30        33        0.001
        11        29        33        30        33        0.001
        12        29        33        30        33        0.001
        13        29        33        30        33        0.001
        14        29        33        30        33        0.001
        15        29        33        30        33        0.001
        16        29        33        30        33        0.001
        17        29        33        30        33        0.001
        18        29        33        30        33        0.001
        19        29        33        30        33        0.001
        20        29        33        30        33        0.001
         1        30        37        30        38        0.001
         2        30        37        30        38        0.001
         3        30        37        30        38        0.001
         4        30        37        30        38        0.001
         5        30        37        30        38        0.001
         6        30        37        30        38        0.001
         7        30        37        30        38        0.001
         8        30        37        30        38        0.001
         9        30        37        30        38        0.001
        10        30        37        30        38        0.001
        11        30        37        30        38        0.001
        12        30        37        30        38        0.001
        13        30        37        30        38        0.001
        14        30        37        30        38        0.001
        15        30        37        30        38        0.001
        16        30        37        30        38        0.001
        17        30        37        30        38        0.001
        18        30        37        30        38        0.001
        19        30        37        30        38        0.001
        20        30        37        30        38        0.001
         1        29        37        30        37        0.001
         2        29        37        30        37        0.001
         3        29        37        30        37        0.001
         4        29        37        30        37        0.001
         5        29        37        30        37        0.001
         6        29        37        30        37        0.001
         7        29        37        30        37        0.001
         8        29        37        30        37        0.001
         9        29        37        30        37        0.001
        10        29        37        30        37        0.001
        11        29        37        30        37        0.001
        12        29        37        30        37        0.001
        13        29        37        30        37        0.001
        14        29        37        30        37        0.001
        15        29        37        30        37        0.001
        16        29        37        30        37        0.001
        17        29        37        30        37        0.001
        18        29        37        30        37        0.001
        19        29        37        30        37        0.001
        20        29        37        30        37        0.001
         1        31        25        31        26        0.001
         2        31        25        31        26        0.001
         3        31        25        31        26        0.001
         4        31        25        31        26        0.001
         5        31        25        31        26        0.001
         6        31        25        31        26        0.001
         7        31        25        31        26        0.001
         8        31        25        31        26        0.001
         9        31        25        31        26        0.001
        10        31        25        31        26        0.001
        11        31        25        31        26        0.001
        12        31        25        31        26        0.001
        13        31        25        31        26        0.001
        14        31        25        31        26        0.001
        15        31        25        31        26        0.001
        16        31        25        31        26        0.001
        17        31        25        31        26        0.001
        18        31        25        31        26        0.001
        19        31        25        31        26        0.001
        20        31        25        31        26        0.001
         1        30        26        31        26        0.001
         2        30        26        31        26        0.001
         3        30        26        31        26        0.001
         4        30        26        31        26        0.001
         5        30        26        31        26        0.001
         6        30        26        31        26        0.001
         7        30        26        31        26        0.001
         8        30        26        31        26        0.001
         9        30        26        31        26        0.001
        10        30        26        31        26        0.001
        11        30        26        31        26        0.001
        12        30        26        31        26        0.001
        13        30        26        31        26        0.001
        14        30        26        31        26        0.001
        15        30        26        31        26        0.001
        16        30        26        31        26        0.001
        17        30        26        31        26        0.001
        18        30        26        31        26        0.001
        19        30        26        31        26        0.001
        20        30        26        31        26        0.001
         1        31        38        31        39        0.001
         2        31        38        31        39        0.001
         3        31        38        31        39        0.001
         4        31        38        31        39        0.001
         5        31        38        31        39        0.001
         6        31        38        31        39        0.001
         7        31        38        31        39        0.001
         8        31        38        31        39        0.001
         9        31        38        31        39        0.001
        10        31        38        31        39        0.001
        11        31        38        31        39        0.001
        12        31        38        31        39        0.001
        13        31        38        31        39        0.001
        14        31        38        31        39        0.001
        15        31        38        31        39        0.001
        16        31        38        31        39        0.001
        17        31        38        31        39        0.001
        18        31        38        31        39        0.001
        19        31        38        31        39        0.001
        20        31        38        31        39        0.001
         1        30        38        31        38        0.001
         2        30        38        31        38        0.001
         3        30        38        31        38        0.001
         4        30        38        31        38        0.001
         5        30        38        31        38        0.001
         6        30        38        31        38        0.001
         7        30        38        31        38        0.001
         8        30        38        31        38        0.001
         9        30        38        31        38        0.001
        10        30        38        31        38        0.001
        11        30        38        31        38        0.001
        12        30        38        31        38        0.001
        13        30        38        31        38        0.001
        14        30        38        31        38        0.001
        15        30        38        31        38        0.001
        16        30        38        31        38        0.001
        17        30        38        31        38        0.001
        18        30        38        31        38        0.001
        19        30        38        31        38        0.001
        20        30        38        31        38        0.001
         1        32        24        32        25        0.001
         2        32        24        32        25        0.001
         3        32        24        32        25        0.001
         4        32        24        32        25        0.001
         5        32        24        32        25        0.001
         6        32        24        32        25        0.001
         7        32        24        32        25        0.001
         8        32        24        32        25        0.001
         9        32        24        32        25        0.001
        10        32        24        32        25        0.001
        11        32        24        32        25        0.001
        12        32        24        32        25        0.001
        13        32        24        32        25        0.001
        14        32        24        32        25        0.001
        15        32        24        32        25        0.001
        16        32        24        32        25        0.001
        17        32        24        32        25        0.001
        18        32        24        32        25        0.001
        19        32        24        32        25        0.001
        20        32        24        32        25        0.001
         1        31        25        32        25        0.001
         2        31        25        32        25        0.001
         3        31        25        32        25        0.001
         4        31        25        32        25        0.001
         5        31        25        32        25        0.001
         6        31        25        32        25        0.001
         7        31        25        32        25        0.001
         8        31        25        32        25        0.001
         9        31        25        32        25        0.001
        10        31        25        32        25        0.001
        11        31        25        32        25        0.001
        12        31        25        32        25        0.001
        13        31        25        32        25        0.001
        14        31        25        32        25        0.001
        15        31        25        32        25        0.001
        16        31        25        32        25        0.001
        17        31        25        32        25        0.001
        18        31        25        32        25        0.001
        19        31        25        32        25        0.001
        20        31        25        32        25        0.001
         1        32        39        32        40        0.001
         2        32        39        32        40        0.001
         3        32        39        32        40        0.001
         4        32        39        32        40        0.001
         5        32        39        32        40        0.001
         6        32        39        32        40        0.001
         7        32        39        32        40        0.001