# PCGN package for  MODFLOW-2005, generated by Flopy.
50 30 1e-05 1e-05
1.0 0 0 0
0 1.0 0.001 0.1 0.0
0 0.001 2 -1.0 -1
