# WEL package for  MODFLOW-2005, generated by Flopy.
        30      1001 
        30         0 # stress period 1
         9        73        52      -7.1641793
        10        73        52      -11.940298
        11        73        52      -11.940298
        12        73        52      -11.940298
        13        73        52      -11.940298
        14        73        52       -5.970149
        15        73        52       -5.970149
        16        73        52       -5.970149
        17        73        52       -5.970149
        18        73        52      -1.1940298
         9        43        45      -7.1641793
        10        43        45      -11.940298
        11        43        45      -11.940298
        12        43        45      -11.940298
        13        43        45      -11.940298
        14        43        45       -5.970149
        15        43        45       -5.970149
        16        43        45       -5.970149
        17        43        45       -5.970149
        18        43        45      -1.1940298
         9        50        35      -7.1641793
        10        50        35      -11.940298
        11        50        35      -11.940298
        12        50        35      -11.940298
        13        50        35      -11.940298
        14        50        35       -5.970149
        15        50        35       -5.970149
        16        50        35       -5.970149
        17        50        35       -5.970149
        18        50        35      -1.1940298
