## BTN for MT3DMS, generated by Flopy.
##
        29       158        90         1         2         2
D   M   KG  
T T T T T 
 0 0 0 0 0 0 0 0 0 0 0 0 0 0 0 0 0 0 0 0 0 0 0 0 0 0 0 0 0
        31         1          (90E15.6)        -1 #delr
   5.000000E+01   5.000000E+01   5.000000E+01   5.000000E+01   5.000000E+01   5.000000E+01   5.000000E+01   5.000000E+01   1.000000E+01   1.000000E+01   1.000000E+01   1.000000E+01   1.000000E+01   1.000000E+01   1.000000E+01   1.000000E+01   1.000000E+01   5.000000E+00   5.000000E+00   5.000000E+00   5.000000E+00   5.000000E+00   5.000000E+00   5.000000E+00   5.000000E+00   5.000000E+00   5.000000E+00   5.000000E+00   5.000000E+00   5.000000E+00   5.000000E+00   5.000000E+00   5.000000E+00   5.000000E+00   5.000000E+00   5.000000E+00   5.000000E+00   5.000000E+00   5.000000E+00   5.000000E+00   5.000000E+00   5.000000E+00   5.000000E+00   5.000000E+00   5.000000E+00   5.000000E+00   5.000000E+00   5.000000E+00   5.000000E+00   5.000000E+00   5.000000E+00   5.000000E+00   5.000000E+00   5.000000E+00   5.000000E+00   5.000000E+00   5.000000E+00   5.000000E+00   5.000000E+00   5.000000E+00   5.000000E+00   5.000000E+00   5.000000E+00   5.000000E+00   5.000000E+00   5.000000E+00   5.000000E+00   5.000000E+00   5.000000E+00   1.000000E+01   1.000000E+01   1.000000E+01   1.000000E+01   1.000000E+01   1.000000E+01   1.000000E+01   1.000000E+01   1.000000E+01   1.000000E+01   5.000000E+01   5.000000E+01   5.000000E+01   5.000000E+01   5.000000E+01   5.000000E+01   5.000000E+01   5.000000E+01   5.000000E+01   5.000000E+01   5.000000E+01
        31         1         (158E15.6)        -1 #delc
   5.000000E+01   5.000000E+01   5.000000E+01   5.000000E+01   5.000000E+01   5.000000E+01   5.000000E+01   5.000000E+01   5.000000E+01   5.000000E+01   5.000000E+01   5.000000E+01   5.000000E+01   5.000000E+01   5.000000E+01   5.000000E+01   5.000000E+01   5.000000E+01   5.000000E+01   1.000000E+01   1.000000E+01   1.000000E+01   1.000000E+01   1.000000E+01   1.000000E+01   1.000000E+01   1.000000E+01   5.000000E+00   5.000000E+00   5.000000E+00   5.000000E+00   5.000000E+00   5.000000E+00   5.000000E+00   5.000000E+00   5.000000E+00   5.000000E+00   5.000000E+00   5.000000E+00   5.000000E+00   5.000000E+00   5.000000E+00   5.000000E+00   5.000000E+00   5.000000E+00   5.000000E+00   5.000000E+00   5.000000E+00   5.000000E+00   5.000000E+00   5.000000E+00   5.000000E+00   5.000000E+00   5.000000E+00   5.000000E+00   5.000000E+00   5.000000E+00   5.000000E+00   5.000000E+00   5.000000E+00   5.000000E+00   5.000000E+00   5.000000E+00   5.000000E+00   5.000000E+00   5.000000E+00   5.000000E+00   5.000000E+00   5.000000E+00   5.000000E+00   5.000000E+00   5.000000E+00   5.000000E+00   5.000000E+00   5.000000E+00   5.000000E+00   5.000000E+00   5.000000E+00   5.000000E+00   5.000000E+00   5.000000E+00   5.000000E+00   5.000000E+00   5.000000E+00   5.000000E+00   5.000000E+00   5.000000E+00   5.000000E+00   5.000000E+00   5.000000E+00   5.000000E+00   5.000000E+00   5.000000E+00   5.000000E+00   5.000000E+00   5.000000E+00   5.000000E+00   5.000000E+00   5.000000E+00   5.000000E+00   5.000000E+00   5.000000E+00   5.000000E+00   5.000000E+00   5.000000E+00   5.000000E+00   5.000000E+00   5.000000E+00   5.000000E+00   5.000000E+00   5.000000E+00   5.000000E+00   5.000000E+00   5.000000E+00   5.000000E+00   5.000000E+00   5.000000E+00   5.000000E+00   5.000000E+00   5.000000E+00   5.000000E+00   5.000000E+00   5.000000E+00   5.000000E+00   5.000000E+00   5.000000E+00   5.000000E+00   1.000000E+01   1.000000E+01   1.000000E+01   1.000000E+01   1.000000E+01   1.000000E+01   1.000000E+01   1.000000E+01   1.000000E+01   1.000000E+01   1.000000E+01   1.000000E+01   5.000000E+01   5.000000E+01   5.000000E+01   5.000000E+01   5.000000E+01   5.000000E+01   5.000000E+01   5.000000E+01   5.000000E+01   5.000000E+01   5.000000E+01   5.000000E+01   5.000000E+01   5.000000E+01   5.000000E+01   5.000000E+01   5.000000E+01   5.000000E+01   5.000000E+01
         0       2.5                           -1 #htop
         0         5                           -1 #dz layer 1
         0       2.5                           -1 #dz layer 2
         0       2.5                           -1 #dz layer 3
         0       2.5                           -1 #dz layer 4
         0       2.5                           -1 #dz layer 5
         0       2.5                           -1 #dz layer 6
         0       2.5                           -1 #dz layer 7
         0       2.5                           -1 #dz layer 8
         0       2.5                           -1 #dz layer 9
         0       2.5                           -1 #dz layer 10
         0       2.5                           -1 #dz layer 11
         0       2.5                           -1 #dz layer 12
         0       2.5                           -1 #dz layer 13
         0       2.5                           -1 #dz layer 14
         0       2.5                           -1 #dz layer 15
         0       2.5                           -1 #dz layer 16
         0       2.5                           -1 #dz layer 17
         0       2.5                           -1 #dz layer 18
         0       2.5                           -1 #dz layer 19
         0       2.5                           -1 #dz layer 20
         0       2.5                           -1 #dz layer 21
         0       2.5                           -1 #dz layer 22
         0       2.5                           -1 #dz layer 23
         0       2.5                           -1 #dz layer 24
         0         8                           -1 #dz layer 25
         0         8                           -1 #dz layer 26
         0         8                           -1 #dz layer 27
         0         8                           -1 #dz layer 28
         0         8                           -1 #dz layer 29
         0       0.3                           -1 #prsity layer 1
         0       0.3                           -1 #prsity layer 2
         0       0.3                           -1 #prsity layer 3
         0       0.3                           -1 #prsity layer 4
         0       0.3                           -1 #prsity layer 5
         0       0.3                           -1 #prsity layer 6
         0       0.3                           -1 #prsity layer 7
         0       0.3                           -1 #prsity layer 8
         0       0.3                           -1 #prsity layer 9
         0       0.3                           -1 #prsity layer 10
         0       0.3                           -1 #prsity layer 11
         0       0.3                           -1 #prsity layer 12
         0       0.3                           -1 #prsity layer 13
         0       0.3                           -1 #prsity layer 14
         0       0.3                           -1 #prsity layer 15
         0       0.3                           -1 #prsity layer 16
         0       0.3                           -1 #prsity layer 17
         0       0.3                           -1 #prsity layer 18
         0       0.3                           -1 #prsity layer 19
         0       0.3                           -1 #prsity layer 20
         0       0.3                           -1 #prsity layer 21
         0       0.3                           -1 #prsity layer 22
         0       0.3                           -1 #prsity layer 23
         0       0.3                           -1 #prsity layer 24
         0       0.3                           -1 #prsity layer 25
         0       0.3                           -1 #prsity layer 26
         0       0.3                           -1 #prsity layer 27
         0       0.3                           -1 #prsity layer 28
         0       0.3                           -1 #prsity layer 29
