# WEL package for  MODFLOW-2005, generated by Flopy.
        30      1001 
        30         0 # stress period 1
         9        73        52      -3.5820897
        10        73        52       -5.970149
        11        73        52       -5.970149
        12        73        52       -5.970149
        13        73        52       -5.970149
        14        73        52      -2.9850745
        15        73        52      -2.9850745
        16        73        52      -2.9850745
        17        73        52      -2.9850745
        18        73        52      -0.5970149
         9        43        45      -3.5820897
        10        43        45       -5.970149
        11        43        45       -5.970149
        12        43        45       -5.970149
        13        43        45       -5.970149
        14        43        45      -2.9850745
        15        43        45      -2.9850745
        16        43        45      -2.9850745
        17        43        45      -2.9850745
        18        43        45      -0.5970149
         9        50        35      -3.5820897
        10        50        35       -5.970149
        11        50        35       -5.970149
        12        50        35       -5.970149
        13        50        35       -5.970149
        14        50        35      -2.9850745
        15        50        35      -2.9850745
        16        50        35      -2.9850745
        17        50        35      -2.9850745
        18        50        35      -0.5970149
