# RCH package for  MODFLOW-2005, generated by Flopy.
         3      1001
         1        -1 # Stress period 1
INTERNAL               1  (90E15.6) -1 #rech_1                        
   0.000000E+00   0.000000E+00   0.000000E+00   0.000000E+00   0.000000E+00   0.000000E+00   0.000000E+00   0.000000E+00   0.000000E+00   0.000000E+00   0.000000E+00   0.000000E+00   0.000000E+00   0.000000E+00   0.000000E+00   0.000000E+00   0.000000E+00   0.000000E+00   0.000000E+00   0.000000E+00   0.000000E+00   0.000000E+00   0.000000E+00   0.000000E+00   0.000000E+00   0.000000E+00   0.000000E+00   0.000000E+00   0.000000E+00   0.000000E+00   0.000000E+00   0.000000E+00   0.000000E+00   0.000000E+00   0.000000E+00   0.000000E+00   0.000000E+00   0.000000E+00   0.000000E+00   0.000000E+00   0.000000E+00   0.000000E+00   0.000000E+00   0.000000E+00   0.000000E+00   0.000000E+00   0.000000E+00   0.000000E+00   0.000000E+00   0.000000E+00   0.000000E+00   0.000000E+00   0.000000E+00   0.000000E+00   0.000000E+00   0.000000E+00   0.000000E+00   0.000000E+00   0.000000E+00   0.000000E+00   0.000000E+00   0.000000E+00   0.000000E+00   0.000000E+00   0.000000E+00   0.000000E+00   0.000000E+00   0.000000E+00   0.000000E+00   0.000000E+00   0.000000E+00   0.000000E+00   0.000000E+00   0.000000E+00   0.000000E+00   0.000000E+00   0.000000E+00   0.000000E+00   0.000000E+00   0.000000E+00   0.000000E+00   0.000000E+00   0.000000E+00   0.000000E+00   0.000000E+00   0.000000E+00   0.000000E+00   0.000000E+00   7.385453E-04   7.385453E-04
   0.000000E+00   0.000000E+00   0.000000E+00   0.000000E+00   0.000000E+00   0.000000E+00   0.000000E+00   0.000000E+00   0.000000E+00   0.000000E+00   0.000000E+00   0.000000E+00   0.000000E+00   0.000000E+00   0.000000E+00   0.000000E+00   0.000000E+00   0.000000E+00   0.000000E+00   0.000000E+00   0.000000E+00   0.000000E+00   0.000000E+00   0.000000E+00   0.000000E+00   0.000000E+00   0.000000E+00   0.000000E+00   0.000000E+00   0.000000E+00   0.000000E+00   0.000000E+00   0.000000E+00   0.000000E+00   0.000000E+00   0.000000E+00   0.000000E+00   0.000000E+00   0.000000E+00   0.000000E+00   0.000000E+00   0.000000E+00   0.000000E+00   0.000000E+00   0.000000E+00   0.000000E+00   0.000000E+00   0.000000E+00   0.000000E+00   0.000000E+00   0.000000E+00   0.000000E+00   0.000000E+00   0.000000E+00   0.000000E+00   0.000000E+00   0.000000E+00   0.000000E+00   0.000000E+00   0.000000E+00   0.000000E+00   0.000000E+00   0.000000E+00   0.000000E+00   0.000000E+00   0.000000E+00   0.000000E+00   0.000000E+00   0.000000E+00   0.000000E+00   0.000000E+00   0.000000E+00   0.000000E+00   0.000000E+00   0.000000E+00   0.000000E+00   0.000000E+00   0.000000E+00   0.000000E+00   0.000000E+00   0.000000E+00   0.000000E+00   0.000000E+00   0.000000E+00   0.000000E+00   0.000000E+00   0.000000E+00   7.385453E-04   7.385453E-04   7.385453E-04
   0.000000E+00   0.000000E+00   0.000000E+00   0.000000E+00   0.000000E+00   0.000000E+00   0.000000E+00   0.000000E+00   0.000000E+00   0.000000E+00   0.000000E+00   0.000000E+00   0.000000E+00   0.000000E+00   0.000000E+00   0.000000E+00   0.000000E+00   0.000000E+00   0.000000E+00   0.000000E+00   0.000000E+00   0.000000E+00   0.000000E+00   0.000000E+00   0.000000E+00   0.000000E+00   0.000000E+00   0.000000E+00   0.000000E+00   0.000000E+00   0.000000E+00   0.000000E+00   0.000000E+00   0.000000E+00   0.000000E+00   0.000000E+00   0.000000E+00   0.000000E+00   0.000000E+00   0.000000E+00   0.000000E+00   0.000000E+00   0.000000E+00   0.000000E+00   0.000000E+00   0.000000E+00   0.000000E+00   0.000000E+00   0.000000E+00   0.000000E+00   0.000000E+00   0.000000E+00   0.000000E+00   0.000000E+00   0.000000E+00   0.000000E+00   0.000000E+00   0.000000E+00   0.000000E+00   0.000000E+00   0.000000E+00   0.000000E+00   0.000000E+00   0.000000E+00   0.000000E+00   0.000000E+00   0.000000E+00   0.000000E+00   0.000000E+00   0.000000E+00   0.000000E+00   0.000000E+00   0.000000E+00   0.000000E+00   0.000000E+00   0.000000E+00   0.000000E+00   0.000000E+00   0.000000E+00   0.000000E+00   0.000000E+00   0.000000E+00   0.000000E+00   0.000000E+00   0.000000E+00   0.000000E+00   7.385453E-04   7.385453E-04   7.385453E-04   7.385453E-04
   0.000000E+00   0.000000E+00   0.000000E+00   0.000000E+00   0.000000E+00   0.000000E+00   0.000000E+00   0.000000E+00   0.000000E+00   0.000000E+00   0.000000E+00   0.000000E+00   0.000000E+00   0.000000E+00   0.000000E+00   0.000000E+00   0.000000E+00   0.000000E+00   0.000000E+00   0.000000E+00   0.000000E+00   0.000000E+00   0.000000E+00   0.000000E+00   0.000000E+00   0.000000E+00   0.000000E+00   0.000000E+00   0.000000E+00   0.000000E+00   0.000000E+00   0.000000E+00   0.000000E+00   0.000000E+00   0.000000E+00   0.000000E+00   0.000000E+00   0.000000E+00   0.000000E+00   0.000000E+00   0.000000E+00   0.000000E+00   0.000000E+00   0.000000E+00   0.000000E+00   0.000000E+00   0.000000E+00   0.000000E+00   0.000000E+00   0.000000E+00   0.000000E+00   0.000000E+00   0.000000E+00   0.000000E+00   0.000000E+00   0.000000E+00   0.000000E+00   0.000000E+00   0.000000E+00   0.000000E+00   0.000000E+00   0.000000E+00   0.000000E+00   0.000000E+00   0.000000E+00   0.000000E+00   0.000000E+00   0.000000E+00   0.000000E+00   0.000000E+00   0.000000E+00   0.000000E+00   0.000000E+00   0.000000E+00   0.000000E+00   0.000000E+00   0.000000E+00   0.000000E+00   0.000000E+00   0.000000E+00   0.000000E+00   0.000000E+00   0.000000E+00   0.000000E+00   0.000000E+00   7.385453E-04   7.385453E-04   7.385453E-04   7.385453E-04   7.385453E-04
   0.000000E+00   0.000000E+00   0.000000E+00   0.000000E+00   0.000000E+00   0.000000E+00   0.000000E+00   0.000000E+00   0.000000E+00   0.000000E+00   0.000000E+00   0.000000E+00   0.000000E+00   0.000000E+00   0.000000E+00   0.000000E+00   0.000000E+00   0.000000E+00   0.000000E+00   0.000000E+00   0.000000E+00   0.000000E+00   0.000000E+00   0.000000E+00   0.000000E+00   0.000000E+00   0.000000E+00   0.000000E+00   0.000000E+00   0.000000E+00   0.000000E+00   0.000000E+00   0.000000E+00   0.000000E+00   0.000000E+00   0.000000E+00   0.000000E+00   0.000000E+00   0.000000E+00   0.000000E+00   0.000000E+00   0.000000E+00   0.000000E+00   0.000000E+00   0.000000E+00   0.000000E+00   0.000000E+00   0.000000E+00   0.000000E+00   0.000000E+00   0.000000E+00   0.000000E+00   0.000000E+00   0.000000E+00   0.000000E+00   0.000000E+00   0.000000E+00   0.000000E+00   0.000000E+00   0.000000E+00   0.000000E+00   0.000000E+00   0.000000E+00   0.000000E+00   0.000000E+00   0.000000E+00   0.000000E+00   0.000000E+00   0.000000E+00   0.000000E+00   0.000000E+00   0.000000E+00   0.000000E+00   0.000000E+00   0.000000E+00   0.000000E+00   0.000000E+00   0.000000E+00   0.000000E+00   0.000000E+00   0.000000E+00   0.000000E+00   0.000000E+00   0.000000E+00   7.385453E-04   7.385453E-04   7.385453E-04   7.385453E-04   7.385453E-04   7.385453E-04
   0.000000E+00   0.000000E+00   0.000000E+00   0.000000E+00   0.000000E+00   0.000000E+00   0.000000E+00   0.000000E+00   0.000000E+00   0.000000E+00   0.000000E+00   0.000000E+00   0.000000E+00   0.000000E+00   0.000000E+00   0.000000E+00   0.000000E+00   0.000000E+00   0.000000E+00   0.000000E+00   0.000000E+00   0.000000E+00   0.000000E+00   0.000000E+00   0.000000E+00   0.000000E+00   0.000000E+00   0.000000E+00   0.000000E+00   0.000000E+00   0.000000E+00   0.000000E+00   0.000000E+00   0.000000E+00   0.000000E+00   0.000000E+00   0.000000E+00   0.000000E+00   0.000000E+00   0.000000E+00   0.000000E+00   0.000000E+00   0.000000E+00   0.000000E+00   0.000000E+00   0.000000E+00   0.000000E+00   0.000000E+00   0.000000E+00   0.000000E+00   0.000000E+00   0.000000E+00   0.000000E+00   0.000000E+00   0.000000E+00   0.000000E+00   0.000000E+00   0.000000E+00   0.000000E+00   0.000000E+00   0.000000E+00   0.000000E+00   0.000000E+00   0.000000E+00   0.000000E+00   0.000000E+00   0.000000E+00   0.000000E+00   0.000000E+00   0.000000E+00   0.000000E+00   0.000000E+00   0.000000E+00   0.000000E+00   0.000000E+00   0.000000E+00   0.000000E+00   0.000000E+00   0.000000E+00   0.000000E+00   0.000000E+00   0.000000E+00   7.385453E-04   7.385453E-04   7.385453E-04   7.385453E-04   7.385453E-04   7.385453E-04   7.385453E-04   7.385453E-04
   0.000000E+00   0.000000E+00   0.000000E+00   0.000000E+00   0.000000E+00   0.000000E+00   0.000000E+00   0.000000E+00   0.000000E+00   0.000000E+00   0.000000E+00   0.000000E+00   0.000000E+00   0.000000E+00   0.000000E+00   0.000000E+00   0.000000E+00   0.000000E+00   0.000000E+00   0.000000E+00   0.000000E+00   0.000000E+00   0.000000E+00   0.000000E+00   0.000000E+00   0.000000E+00   0.000000E+00   0.000000E+00   0.000000E+00   0.000000E+00   0.000000E+00   0.000000E+00   0.000000E+00   0.000000E+00   0.000000E+00   0.000000E+00   0.000000E+00   0.000000E+00   0.000000E+00   0.000000E+00   0.000000E+00   0.000000E+00   0.000000E+00   0.000000E+00   0.000000E+00   0.000000E+00   0.000000E+00   0.000000E+00   0.000000E+00   0.000000E+00   0.000000E+00   0.000000E+00   0.000000E+00   0.000000E+00   0.000000E+00   0.000000E+00   0.000000E+00   0.000000E+00   0.000000E+00   0.000000E+00   0.000000E+00   0.000000E+00   0.000000E+00   0.000000E+00   0.000000E+00   0.000000E+00   0.000000E+00   0.000000E+00   0.000000E+00   0.000000E+00   0.000000E+00   0.000000E+00   0.000000E+00   0.000000E+00   0.000000E+00   0.000000E+00   0.000000E+00   0.000000E+00   0.000000E+00   0.000000E+00   0.000000E+00   7.385453E-04   7.385453E-04   7.385453E-04   7.385453E-04   7.385453E-04   7.385453E-04   7.385453E-04   7.385453E-04   7.385453E-04
   0.000000E+00   0.000000E+00   0.000000E+00   0.000000E+00   0.000000E+00   0.000000E+00   0.000000E+00   0.000000E+00   0.000000E+00   0.000000E+00   0.000000E+00   0.000000E+00   0.000000E+00   0.000000E+00   0.000000E+00   0.000000E+00   0.000000E+00   0.000000E+00   0.000000E+00   0.000000E+00   0.000000E+00   0.000000E+00   0.000000E+00   0.000000E+00   0.000000E+00   0.000000E+00   0.000000E+00   0.000000E+00   0.000000E+00   0.000000E+00   0.000000E+00   0.000000E+00   0.000000E+00   0.000000E+00   0.000000E+00   0.000000E+00   0.000000E+00   0.000000E+00   0.000000E+00   0.000000E+00   0.000000E+00   0.000000E+00   0.000000E+00   0.000000E+00   0.000000E+00   0.000000E+00   0.000000E+00   0.000000E+00   0.000000E+00   0.000000E+00   0.000000E+00   0.000000E+00   0.000000E+00   0.000000E+00   0.000000E+00   0.000000E+00   0.000000E+00   0.000000E+00   0.000000E+00   0.000000E+00   0.000000E+00   0.000000E+00   0.000000E+00   0.000000E+00   0.000000E+00   0.000000E+00   0.000000E+00   0.000000E+00   0.000000E+00   0.000000E+00   0.000000E+00   0.000000E+00   0.000000E+00   0.000000E+00   0.000000E+00   0.000000E+00   0.000000E+00   0.000000E+00   7.385453E-04   7.385453E-04   7.385453E-04   7.385453E-04   7.385453E-04   7.385453E-04   7.385453E-04   7.385453E-04   7.385453E-04   7.385453E-04   7.385453E-04   7.385453E-04
   0.000000E+00   0.000000E+00   0.000000E+00   0.000000E+00   0.000000E+00   0.000000E+00   0.000000E+00   0.000000E+00   0.000000E+00   0.000000E+00   0.000000E+00   0.000000E+00   0.000000E+00   0.000000E+00   0.000000E+00   0.000000E+00   0.000000E+00   0.000000E+00   0.000000E+00   0.000000E+00   0.000000E+00   0.000000E+00   0.000000E+00   0.000000E+00   0.000000E+00   0.000000E+00   0.000000E+00   0.000000E+00   0.000000E+00   0.000000E+00   0.000000E+00   0.000000E+00   0.000000E+00   0.000000E+00   0.000000E+00   0.000000E+00   0.000000E+00   0.000000E+00   0.000000E+00   0.000000E+00   0.000000E+00   0.000000E+00   0.000000E+00   0.000000E+00   0.000000E+00   0.000000E+00   0.000000E+00   0.000000E+00   0.000000E+00   0.000000E+00   0.000000E+00   0.000000E+00   0.000000E+00   0.000000E+00   0.000000E+00   0.000000E+00   0.000000E+00   0.000000E+00   0.000000E+00   0.000000E+00   0.000000E+00   0.000000E+00   0.000000E+00   0.000000E+00   0.000000E+00   0.000000E+00   0.000000E+00   0.000000E+00   0.000000E+00   0.000000E+00   0.000000E+00   0.000000E+00   7.385453E-04   7.385453E-04   7.385453E-04   7.385453E-04   7.385453E-04   7.385453E-04   7.385453E-04   7.385453E-04   7.385453E-04   7.385453E-04   7.385453E-04   7.385453E-04   7.385453E-04   7.385453E-04   7.385453E-04   7.385453E-04   7.385453E-04   7.385453E-04
   0.000000E+00   0.000000E+00   0.000000E+00   0.000000E+00   0.000000E+00   0.000000E+00   0.000000E+00   0.000000E+00   0.000000E+00   0.000000E+00   0.000000E+00   0.000000E+00   0.000000E+00   0.000000E+00   0.000000E+00   0.000000E+00   0.000000E+00   0.000000E+00   0.000000E+00   0.000000E+00   0.000000E+00   0.000000E+00   0.000000E+00   0.000000E+00   0.000000E+00   0.000000E+00   0.000000E+00   0.000000E+00   0.000000E+00   0.000000E+00   0.000000E+00   0.000000E+00   0.000000E+00   0.000000E+00   0.000000E+00   0.000000E+00   0.000000E+00   0.000000E+00   0.000000E+00   0.000000E+00   0.000000E+00   0.000000E+00   0.000000E+00   0.000000E+00   0.000000E+00   0.000000E+00   0.000000E+00   0.000000E+00   0.000000E+00   0.000000E+00   0.000000E+00   0.000000E+00   0.000000E+00   0.000000E+00   0.000000E+00   0.000000E+00   0.000000E+00   0.000000E+00   0.000000E+00   0.000000E+00   0.000000E+00   0.000000E+00   7.385453E-04   7.385453E-04   7.385453E-04   7.385453E-04   7.385453E-04   7.385453E-04   7.385453E-04   7.385453E-04   7.385453E-04   7.385453E-04   7.385453E-04   7.385453E-04   7.385453E-04   7.385453E-04   7.385453E-04   7.385453E-04   7.385453E-04   7.385453E-04   7.385453E-04   7.385453E-04   7.385453E-04   7.385453E-04   7.385453E-04   7.385453E-04   7.385453E-04   7.385453E-04   7.385453E-04   7.385453E-04
   0.000000E+00   0.000000E+00   0.000000E+00   0.000000E+00   0.000000E+00   0.000000E+00   0.000000E+00   0.000000E+00   0.000000E+00   0.000000E+00   0.000000E+00   0.000000E+00   0.000000E+00   0.000000E+00   0.000000E+00   0.000000E+00   0.000000E+00   0.000000E+00   0.000000E+00   0.000000E+00   0.000000E+00   0.000000E+00   0.000000E+00   0.000000E+00   0.000000E+00   0.000000E+00   0.000000E+00   0.000000E+00   0.000000E+00   0.000000E+00   0.000000E+00   0.000000E+00   0.000000E+00   0.000000E+00   0.000000E+00   0.000000E+00   0.000000E+00   0.000000E+00   0.000000E+00   0.000000E+00   0.000000E+00   0.000000E+00   0.000000E+00   0.000000E+00   0.000000E+00   0.000000E+00   0.000000E+00   7.385453E-04   7.385453E-04   7.385453E-04   7.385453E-04   7.385453E-04   7.385453E-04   7.385453E-04   7.385453E-04   7.385453E-04   7.385453E-04   7.385453E-04   7.385453E-04   7.385453E-04   7.385453E-04   7.385453E-04   7.385453E-04   7.385453E-04   7.385453E-04   7.385453E-04   7.385453E-04   7.385453E-04   7.385453E-04   7.385453E-04   7.385453E-04   7.385453E-04   7.385453E-04   7.385453E-04   7.385453E-04   7.385453E-04   7.385453E-04   7.385453E-04   7.385453E-04   7.385453E-04   7.385453E-04   7.385453E-04   7.385453E-04   7.385453E-04   7.385453E-04   7.385453E-04   7.385453E-04   7.385453E-04   7.385453E-04   7.385453E-04
   0.000000E+00   0.000000E+00   0.000000E+00   0.000000E+00   0.000000E+00   0.000000E+00   0.000000E+00   0.000000E+00   0.000000E+00   0.000000E+00   0.000000E+00   0.000000E+00   0.000000E+00   0.000000E+00   0.000000E+00   0.000000E+00   0.000000E+00   0.000000E+00   0.000000E+00   0.000000E+00   0.000000E+00   0.000000E+00   0.000000E+00   0.000000E+00   0.000000E+00   0.000000E+00   0.000000E+00   0.000000E+00   0.000000E+00   0.000000E+00   0.000000E+00   0.000000E+00   0.000000E+00   0.000000E+00   0.000000E+00   0.000000E+00   7.385453E-04   7.385453E-04   7.385453E-04   7.385453E-04   7.385453E-04   7.385453E-04   7.385453E-04   7.385453E-04   7.385453E-04   7.385453E-04   7.385453E-04   7.385453E-04   7.385453E-04   7.385453E-04   7.385453E-04   7.385453E-04   7.385453E-04   7.385453E-04   7.385453E-04   7.385453E-04   7.385453E-04   7.385453E-04   7.385453E-04   7.385453E-04   7.385453E-04   7.385453E-04   7.385453E-04   7.385453E-04   7.385453E-04   7.385453E-04   7.385453E-04   7.385453E-04   7.385453E-04   7.385453E-04   7.385453E-04   7.385453E-04   7.385453E-04   7.385453E-04   7.385453E-04   7.385453E-04   7.385453E-04   7.385453E-04   7.385453E-04   7.385453E-04   7.385453E-04   7.385453E-04   7.385453E-04   7.385453E-04   7.385453E-04   7.385453E-04   7.385453E-04   7.385453E-04   7.385453E-04   7.385453E-04
   0.000000E+00   0.000000E+00   0.000000E+00   0.000000E+00   0.000000E+00   0.000000E+00   0.000000E+00   0.000000E+00   0.000000E+00   0.000000E+00   0.000000E+00   0.000000E+00   0.000000E+00   0.000000E+00   0.000000E+00   0.000000E+00   0.000000E+00   0.000000E+00   0.000000E+00   0.000000E+00   0.000000E+00   0.000000E+00   0.000000E+00   0.000000E+00   0.000000E+00   0.000000E+00   0.000000E+00   0.000000E+00   0.000000E+00   0.000000E+00   0.000000E+00   7.385453E-04   7.385453E-04   7.385453E-04   7.385453E-04   7.385453E-04   7.385453E-04   7.385453E-04   7.385453E-04   7.385453E-04   7.385453E-04   7.385453E-04   7.385453E-04   7.385453E-04   7.385453E-04   7.385453E-04   7.385453E-04   7.385453E-04   7.385453E-04   7.385453E-04   7.385453E-04   7.385453E-04   7.385453E-04   7.385453E-04   7.385453E-04   7.385453E-04   7.385453E-04   7.385453E-04   7.385453E-04   7.385453E-04   7.385453E-04   7.385453E-04   7.385453E-04   7.385453E-04   7.385453E-04   7.385453E-04   7.385453E-04   7.385453E-04   7.385453E-04   7.385453E-04   7.385453E-04   7.385453E-04   7.385453E-04   7.385453E-04   7.385453E-04   7.385453E-04   7.385453E-04   7.385453E-04   7.385453E-04   7.385453E-04   7.385453E-04   7.385453E-04   7.385453E-04   7.385453E-04   7.385453E-04   7.385453E-04   7.385453E-04   7.385453E-04   7.385453E-04   7.385453E-04
   0.000000E+00   0.000000E+00   0.000000E+00   0.000000E+00   0.000000E+00   0.000000E+00   0.000000E+00   0.000000E+00   0.000000E+00   0.000000E+00   0.000000E+00   0.000000E+00   0.000000E+00   0.000000E+00   0.000000E+00   0.000000E+00   0.000000E+00   0.000000E+00   0.000000E+00   0.000000E+00   0.000000E+00   0.000000E+00   0.000000E+00   0.000000E+00   0.000000E+00   0.000000E+00   7.385453E-04   7.385453E-04   7.385453E-04   7.385453E-04   7.385453E-04   7.385453E-04   7.385453E-04   7.385453E-04   7.385453E-04   7.385453E-04   7.385453E-04   7.385453E-04   7.385453E-04   7.385453E-04   7.385453E-04   7.385453E-04   7.385453E-04   7.385453E-04   7.385453E-04   7.385453E-04   7.385453E-04   7.385453E-04   7.385453E-04   7.385453E-04   7.385453E-04   7.385453E-04   7.385453E-04   7.385453E-04   7.385453E-04   7.385453E-04   7.385453E-04   7.385453E-04   7.385453E-04   7.385453E-04   7.385453E-04   7.385453E-04   7.385453E-04   7.385453E-04   7.385453E-04   7.385453E-04   7.385453E-04   7.385453E-04   7.385453E-04   7.385453E-04   7.385453E-04   7.385453E-04   7.385453E-04   7.385453E-04   7.385453E-04   7.385453E-04   7.385453E-04   7.385453E-04   7.385453E-04   7.385453E-04   7.385453E-04   7.385453E-04   7.385453E-04   7.385453E-04   7.385453E-04   7.385453E-04   7.385453E-04   7.385453E-04   7.385453E-04   7.385453E-04
   0.000000E+00   0.000000E+00   0.000000E+00   0.000000E+00   0.000000E+00   0.000000E+00   0.000000E+00   0.000000E+00   0.000000E+00   0.000000E+00   0.000000E+00   0.000000E+00   0.000000E+00   0.000000E+00   0.000000E+00   0.000000E+00   0.000000E+00   0.000000E+00   0.000000E+00   0.000000E+00   7.385453E-04   7.385453E-04   7.385453E-04   7.385453E-04   7.385453E-04   7.385453E-04   7.385453E-04   7.385453E-04   7.385453E-04   7.385453E-04   7.385453E-04   7.385453E-04   7.385453E-04   7.385453E-04   7.385453E-04   7.385453E-04   7.385453E-04   7.385453E-04   7.385453E-04   7.385453E-04   7.385453E-04   7.385453E-04   7.385453E-04   7.385453E-04   7.385453E-04   7.385453E-04   7.385453E-04   7.385453E-04   7.385453E-04   7.385453E-04   7.385453E-04   7.385453E-04   7.385453E-04   7.385453E-04   7.385453E-04   7.385453E-04   7.385453E-04   7.385453E-04   7.385453E-04   7.385453E-04   7.385453E-04   7.385453E-04   7.385453E-04   7.385453E-04   7.385453E-04   7.385453E-04   7.385453E-04   7.385453E-04   7.385453E-04   7.385453E-04   7.385453E-04   7.385453E-04   7.385453E-04   7.385453E-04   7.385453E-04   7.385453E-04   7.385453E-04   7.385453E-04   7.385453E-04   7.385453E-04   7.385453E-04   7.385453E-04   7.385453E-04   7.385453E-04   7.385453E-04   7.385453E-04   7.385453E-04   7.385453E-04   7.385453E-04   7.385453E-04
   0.000000E+00   0.000000E+00   0.000000E+00   0.000000E+00   0.000000E+00   0.000000E+00   0.000000E+00   0.000000E+00   0.000000E+00   7.385453E-04   7.385453E-04   7.385453E-04   7.385453E-04   7.385453E-04   7.385453E-04   7.385453E-04   7.385453E-04   7.385453E-04   7.385453E-04   7.385453E-04   7.385453E-04   7.385453E-04   7.385453E-04   7.385453E-04   7.385453E-04   7.385453E-04   7.385453E-04   7.385453E-04   7.385453E-04   7.385453E-04   7.385453E-04   7.385453E-04   7.385453E-04   7.385453E-04   7.385453E-04   7.385453E-04   7.385453E-04   7.385453E-04   7.385453E-04   7.385453E-04   7.385453E-04   7.385453E-04   7.385453E-04   7.385453E-04   7.385453E-04   7.385453E-04   7.385453E-04   7.385453E-04   7.385453E-04   7.385453E-04   7.385453E-04   7.385453E-04   7.385453E-04   7.385453E-04   7.385453E-04   7.385453E-04   7.385453E-04   7.385453E-04   7.385453E-04   7.385453E-04   7.385453E-04   7.385453E-04   7.385453E-04   7.385453E-04   7.385453E-04   7.385453E-04   7.385453E-04   7.385453E-04   7.385453E-04   7.385453E-04   7.385453E-04   7.385453E-04   7.385453E-04   7.385453E-04   7.385453E-04   7.385453E-04   7.385453E-04   7.385453E-04   7.385453E-04   7.385453E-04   7.385453E-04   7.385453E-04   7.385453E-04   7.385453E-04   7.385453E-04   7.385453E-04   7.385453E-04   7.385453E-04   7.385453E-04   7.385453E-04
   0.000000E+00   0.000000E+00   0.000000E+00   0.000000E+00   0.000000E+00   0.000000E+00   0.000000E+00   7.385453E-04   7.385453E-04   7.385453E-04   7.385453E-04   7.385453E-04   7.385453E-04   7.385453E-04   7.385453E-04   7.385453E-04   7.385453E-04   7.385453E-04   7.385453E-04   7.385453E-04   7.385453E-04   7.385453E-04   7.385453E-04   7.385453E-04   7.385453E-04   7.385453E-04   7.385453E-04   7.385453E-04   7.385453E-04   7.385453E-04   7.385453E-04   7.385453E-04   7.385453E-04   7.385453E-04   7.385453E-04   7.385453E-04   7.385453E-04   7.385453E-04   7.385453E-04   7.385453E-04   7.385453E-04   7.385453E-04   7.385453E-04   7.385453E-04   7.385453E-04   7.385453E-04   7.385453E-04   7.385453E-04   7.385453E-04   7.385453E-04   7.385453E-04   7.385453E-04   7.385453E-04   7.385453E-04   7.385453E-04   7.385453E-04   7.385453E-04   7.385453E-04   7.385453E-04   7.385453E-04   7.385453E-04   7.385453E-04   7.385453E-04   7.385453E-04   7.385453E-04   7.385453E-04   7.385453E-04   7.385453E-04   7.385453E-04   7.385453E-04   7.385453E-04   7.385453E-04   7.385453E-04   7.385453E-04   7.385453E-04   7.385453E-04   7.385453E-04   7.385453E-04   7.385453E-04   7.385453E-04   7.385453E-04   7.385453E-04   7.385453E-04   7.385453E-04   7.385453E-04   7.385453E-04   7.385453E-04   7.385453E-04   7.385453E-04   7.385453E-04
   0.000000E+00   0.000000E+00   0.000000E+00   0.000000E+00   0.000000E+00   0.000000E+00   7.385453E-04   7.385453E-04   7.385453E-04   7.385453E-04   7.385453E-04   7.385453E-04   7.385453E-04   7.385453E-04   7.385453E-04   7.385453E-04   7.385453E-04   7.385453E-04   7.385453E-04   7.385453E-04   7.385453E-04   7.385453E-04   7.385453E-04   7.385453E-04   7.385453E-04   7.385453E-04   7.385453E-04   7.385453E-04   7.385453E-04   7.385453E-04   7.385453E-04   7.385453E-04   7.385453E-04   7.385453E-04   7.385453E-04   7.385453E-04   7.385453E-04   7.385453E-04   7.385453E-04   7.385453E-04   7.385453E-04   7.385453E-04   7.385453E-04   7.385453E-04   7.385453E-04   7.385453E-04   7.385453E-04   7.385453E-04   7.385453E-04   7.385453E-04   7.385453E-04   7.385453E-04   7.385453E-04   7.385453E-04   7.385453E-04   7.385453E-04   7.385453E-04   7.385453E-04   7.385453E-04   7.385453E-04   7.385453E-04   7.385453E-04   7.385453E-04   7.385453E-04   7.385453E-04   7.385453E-04   7.385453E-04   7.385453E-04   7.385453E-04   7.385453E-04   7.385453E-04   7.385453E-04   7.385453E-04   7.385453E-04   7.385453E-04   7.385453E-04   7.385453E-04   7.385453E-04   7.385453E-04   7.385453E-04   7.385453E-04   7.385453E-04   7.385453E-04   7.385453E-04   7.385453E-04   7.385453E-04   7.385453E-04   7.385453E-04   7.385453E-04   7.385453E-04
   0.000000E+00   0.000000E+00   0.000000E+00   0.000000E+00   0.000000E+00   0.000000E+00   7.385453E-04   7.385453E-04   7.385453E-04   7.385453E-04   7.385453E-04   7.385453E-04   7.385453E-04   7.385453E-04   7.385453E-04   7.385453E-04   7.385453E-04   7.385453E-04   7.385453E-04   7.385453E-04   7.385453E-04   7.385453E-04   7.385453E-04   7.385453E-04   7.385453E-04   7.385453E-04   7.385453E-04   7.385453E-04   7.385453E-04   7.385453E-04   7.385453E-04   7.385453E-04   7.385453E-04   7.385453E-04   7.385453E-04   7.385453E-04   7.385453E-04   7.385453E-04   7.385453E-04   7.385453E-04   7.385453E-04   7.385453E-04   7.385453E-04   7.385453E-04   7.385453E-04   7.385453E-04   7.385453E-04   7.385453E-04   7.385453E-04   7.385453E-04   7.385453E-04   7.385453E-04   7.385453E-04   7.385453E-04   7.385453E-04   7.385453E-04   7.385453E-04   7.385453E-04   7.385453E-04   7.385453E-04   7.385453E-04   7.385453E-04   7.385453E-04   7.385453E-04   7.385453E-04   7.385453E-04   7.385453E-04   7.385453E-04   7.385453E-04   7.385453E-04   7.385453E-04   7.385453E-04   7.385453E-04   7.385453E-04   7.385453E-04   7.385453E-04   7.385453E-04   7.385453E-04   7.385453E-04   7.385453E-04   7.385453E-04   7.385453E-04   7.385453E-04   7.385453E-04   7.385453E-04   7.385453E-04   7.385453E-04   7.385453E-04   7.385453E-04   7.385453E-04
   0.000000E+00   0.000000E+00   0.000000E+00   0.000000E+00   0.000000E+00   7.385453E-04   7.385453E-04   7.385453E-04   7.385453E-04   7.385453E-04   7.385453E-04   7.385453E-04   7.385453E-04   7.385453E-04   7.385453E-04   7.385453E-04   7.385453E-04   7.385453E-04   7.385453E-04   7.385453E-04   7.385453E-04   7.385453E-04   7.385453E-04   7.385453E-04   7.385453E-04   7.385453E-04   7.385453E-04   7.385453E-04   7.385453E-04   7.385453E-04   7.385453E-04   7.385453E-04   7.385453E-04   7.385453E-04   7.385453E-04   7.385453E-04   7.385453E-04   7.385453E-04   7.385453E-04   7.385453E-04   7.385453E-04   7.385453E-04   7.385453E-04   7.385453E-04   7.385453E-04   7.385453E-04   7.385453E-04   7.385453E-04   7.385453E-04   7.385453E-04   7.385453E-04   7.385453E-04   7.385453E-04   7.385453E-04   7.385453E-04   7.385453E-04   7.385453E-04   7.385453E-04   7.385453E-04   7.385453E-04   7.385453E-04   7.385453E-04   7.385453E-04   7.385453E-04   7.385453E-04   7.385453E-04   7.385453E-04   7.385453E-04   7.385453E-04   7.385453E-04   7.385453E-04   7.385453E-04   7.385453E-04   7.385453E-04   7.385453E-04   7.385453E-04   7.385453E-04   7.385453E-04   7.385453E-04   7.385453E-04   7.385453E-04   7.385453E-04   7.385453E-04   7.385453E-04   7.385453E-04   7.385453E-04   7.385453E-04   7.385453E-04   7.385453E-04   7.385453E-04
   0.000000E+00   0.000000E+00   0.000000E+00   0.000000E+00   0.000000E+00   7.385453E-04   7.385453E-04   7.385453E-04   7.385453E-04   7.385453E-04   7.385453E-04   7.385453E-04   7.385453E-04   7.385453E-04   7.385453E-04   7.385453E-04   7.385453E-04   7.385453E-04   7.385453E-04   7.385453E-04   7.385453E-04   7.385453E-04   7.385453E-04   7.385453E-04   7.385453E-04   7.385453E-04   7.385453E-04   7.385453E-04   7.385453E-04   7.385453E-04   7.385453E-04   7.385453E-04   7.385453E-04   7.385453E-04   7.385453E-04   7.385453E-04   7.385453E-04   7.385453E-04   7.385453E-04   7.385453E-04   7.385453E-04   7.385453E-04   7.385453E-04   7.385453E-04   7.385453E-04   7.385453E-04   7.385453E-04   7.385453E-04   7.385453E-04   7.385453E-04   7.385453E-04   7.385453E-04   7.385453E-04   7.385453E-04   7.385453E-04   7.385453E-04   7.385453E-04   7.385453E-04   7.385453E-04   7.385453E-04   7.385453E-04   7.385453E-04   7.385453E-04   7.385453E-04   7.385453E-04   7.385453E-04   7.385453E-04   7.385453E-04   7.385453E-04   7.385453E-04   7.385453E-04   7.385453E-04   7.385453E-04   7.385453E-04   7.385453E-04   7.385453E-04   7.385453E-04   7.385453E-04   7.385453E-04   7.385453E-04   7.385453E-04   7.385453E-04   7.385453E-04   7.385453E-04   7.385453E-04   7.385453E-04   7.385453E-04   7.385453E-04   7.385453E-04   7.385453E-04
   0.000000E+00   0.000000E+00   0.000000E+00   0.000000E+00   0.000000E+00   7.385453E-04   7.385453E-04   7.385453E-04   7.385453E-04   7.385453E-04   7.385453E-04   7.385453E-04   7.385453E-04   7.385453E-04   7.385453E-04   7.385453E-04   7.385453E-04   7.385453E-04   7.385453E-04   7.385453E-04   7.385453E-04   7.385453E-04   7.385453E-04   7.385453E-04   7.385453E-04   7.385453E-04   7.385453E-04   7.385453E-04   7.385453E-04   7.385453E-04   7.385453E-04   7.385453E-04   7.385453E-04   7.385453E-04   7.385453E-04   7.385453E-04   7.385453E-04   7.385453E-04   7.385453E-04   7.385453E-04   7.385453E-04   7.385453E-04   7.385453E-04   7.385453E-04   7.385453E-04   7.385453E-04   7.385453E-04   7.385453E-04   7.385453E-04   7.385453E-04   7.385453E-04   7.385453E-04   7.385453E-04   7.385453E-04   7.385453E-04   7.385453E-04   7.385453E-04   7.385453E-04   7.385453E-04   7.385453E-04   7.385453E-04   7.385453E-04   7.385453E-04   7.385453E-04   7.385453E-04   7.385453E-04   7.385453E-04   7.385453E-04   7.385453E-04   7.385453E-04   7.385453E-04   7.385453E-04   7.385453E-04   7.385453E-04   7.385453E-04   7.385453E-04   7.385453E-04   7.385453E-04   7.385453E-04   7.385453E-04   7.385453E-04   7.385453E-04   7.385453E-04   7.385453E-04   7.385453E-04   7.385453E-04   7.385453E-04   7.385453E-04   7.385453E-04   7.385453E-04