# HFB6 package for  MODFLOW-2005, generated by Flopy.
         0         0      6160
         1        29        52        29        53        0.001
         2        29        52        29        53        0.001
         3        29        52        29        53        0.001
         4        29        52        29        53        0.001
         5        29        52        29        53        0.001
         6        29        52        29        53        0.001
         7        29        52        29        53        0.001
         8        29        52        29        53        0.001
         9        29        52        29        53        0.001
        10        29        52        29        53        0.001
        11        29        52        29        53        0.001
        12        29        52        29        53        0.001
        13        29        52        29        53        0.001
        14        29        52        29        53        0.001
        15        29        52        29        53        0.001
        16        29        52        29        53        0.001
        17        29        52        29        53        0.001
        18        29        52        29        53        0.001
        19        29        52        29        53        0.001
        20        29        52        29        53        0.001
         1        29        53        29        54        0.001
         2        29        53        29        54        0.001
         3        29        53        29        54        0.001
         4        29        53        29        54        0.001
         5        29        53        29        54        0.001
         6        29        53        29        54        0.001
         7        29        53        29        54        0.001
         8        29        53        29        54        0.001
         9        29        53        29        54        0.001
        10        29        53        29        54        0.001
        11        29        53        29        54        0.001
        12        29        53        29        54        0.001
        13        29        53        29        54        0.001
        14        29        53        29        54        0.001
        15        29        53        29        54        0.001
        16        29        53        29        54        0.001
        17        29        53        29        54        0.001
        18        29        53        29        54        0.001
        19        29        53        29        54        0.001
        20        29        53        29        54        0.001
         1        28        53        29        53        0.001
         2        28        53        29        53        0.001
         3        28        53        29        53        0.001
         4        28        53        29        53        0.001
         5        28        53        29        53        0.001
         6        28        53        29        53        0.001
         7        28        53        29        53        0.001
         8        28        53        29        53        0.001
         9        28        53        29        53        0.001
        10        28        53        29        53        0.001
        11        28        53        29        53        0.001
        12        28        53        29        53        0.001
        13        28        53        29        53        0.001
        14        28        53        29        53        0.001
        15        28        53        29        53        0.001
        16        28        53        29        53        0.001
        17        28        53        29        53        0.001
        18        28        53        29        53        0.001
        19        28        53        29        53        0.001
        20        28        53        29        53        0.001
         1        30        35        30        36        0.001
         2        30        35        30        36        0.001
         3        30        35        30        36        0.001
         4        30        35        30        36        0.001
         5        30        35        30        36        0.001
         6        30        35        30        36        0.001
         7        30        35        30        36        0.001
         8        30        35        30        36        0.001
         9        30        35        30        36        0.001
        10        30        35        30        36        0.001
        11        30        35        30        36        0.001
        12        30        35        30        36        0.001
        13        30        35        30        36        0.001
        14        30        35        30        36        0.001
        15        30        35        30        36        0.001
        16        30        35        30        36        0.001
        17        30        35        30        36        0.001
        18        30        35        30        36        0.001
        19        30        35        30        36        0.001
        20        30        35        30        36        0.001
         1        30        36        30        37        0.001
         2        30        36        30        37        0.001
         3        30        36        30        37        0.001
         4        30        36        30        37        0.001
         5        30        36        30        37        0.001
         6        30        36        30        37        0.001
         7        30        36        30        37        0.001
         8        30        36        30        37        0.001
         9        30        36        30        37        0.001
        10        30        36        30        37        0.001
        11        30        36        30        37        0.001
        12        30        36        30        37        0.001
        13        30        36        30        37        0.001
        14        30        36        30        37        0.001
        15        30        36        30        37        0.001
        16        30        36        30        37        0.001
        17        30        36        30        37        0.001
        18        30        36        30        37        0.001
        19        30        36        30        37        0.001
        20        30        36        30        37        0.001
         1        29        36        30        36        0.001
         2        29        36        30        36        0.001
         3        29        36        30        36        0.001
         4        29        36        30        36        0.001
         5        29        36        30        36        0.001
         6        29        36        30        36        0.001
         7        29        36        30        36        0.001
         8        29        36        30        36        0.001
         9        29        36        30        36        0.001
        10        29        36        30        36        0.001
        11        29        36        30        36        0.001
        12        29        36        30        36        0.001
        13        29        36        30        36        0.001
        14        29        36        30        36        0.001
        15        29        36        30        36        0.001
        16        29        36        30        36        0.001
        17        29        36        30        36        0.001
        18        29        36        30        36        0.001
        19        29        36        30        36        0.001
        20        29        36        30        36        0.001
         1        30        51        30        52        0.001
         2        30        51        30        52        0.001
         3        30        51        30        52        0.001
         4        30        51        30        52        0.001
         5        30        51        30        52        0.001
         6        30        51        30        52        0.001
         7        30        51        30        52        0.001
         8        30        51        30        52        0.001
         9        30        51        30        52        0.001
        10        30        51        30        52        0.001
        11        30        51        30        52        0.001
        12        30        51        30        52        0.001
        13        30        51        30        52        0.001
        14        30        51        30        52        0.001
        15        30        51        30        52        0.001
        16        30        51        30        52        0.001
        17        30        51        30        52        0.001
        18        30        51        30        52        0.001
        19        30        51        30        52        0.001
        20        30        51        30        52        0.001
         1        29        52        30        52        0.001
         2        29        52        30        52        0.001
         3        29        52        30        52        0.001
         4        29        52        30        52        0.001
         5        29        52        30        52        0.001
         6        29        52        30        52        0.001
         7        29        52        30        52        0.001
         8        29        52        30        52        0.001
         9        29        52        30        52        0.001
        10        29        52        30        52        0.001
        11        29        52        30        52        0.001
        12        29        52        30        52        0.001
        13        29        52        30        52        0.001
        14        29        52        30        52        0.001
        15        29        52        30        52        0.001
        16        29        52        30        52        0.001
        17        29        52        30        52        0.001
        18        29        52        30        52        0.001
        19        29        52        30        52        0.001
        20        29        52        30        52        0.001
         1        30        54        30        55        0.001
         2        30        54        30        55        0.001
         3        30        54        30        55        0.001
         4        30        54        30        55        0.001
         5        30        54        30        55        0.001
         6        30        54        30        55        0.001
         7        30        54        30        55        0.001
         8        30        54        30        55        0.001
         9        30        54        30        55        0.001
        10        30        54        30        55        0.001
        11        30        54        30        55        0.001
        12        30        54        30        55        0.001
        13        30        54        30        55        0.001
        14        30        54        30        55        0.001
        15        30        54        30        55        0.001
        16        30        54        30        55        0.001
        17        30        54        30        55        0.001
        18        30        54        30        55        0.001
        19        30        54        30        55        0.001
        20        30        54        30        55        0.001
         1        29        54        30        54        0.001
         2        29        54        30        54        0.001
         3        29        54        30        54        0.001
         4        29        54        30        54        0.001
         5        29        54        30        54        0.001
         6        29        54        30        54        0.001
         7        29        54        30        54        0.001
         8        29        54        30        54        0.001
         9        29        54        30        54        0.001
        10        29        54        30        54        0.001
        11        29        54        30        54        0.001
        12        29        54        30        54        0.001
        13        29        54        30        54        0.001
        14        29        54        30        54        0.001
        15        29        54        30        54        0.001
        16        29        54        30        54        0.001
        17        29        54        30        54        0.001
        18        29        54        30        54        0.001
        19        29        54        30        54        0.001
        20        29        54        30        54        0.001
         1        31        35        31        36        0.001
         2        31        35        31        36        0.001
         3        31        35        31        36        0.001
         4        31        35        31        36        0.001
         5        31        35        31        36        0.001
         6        31        35        31        36        0.001
         7        31        35        31        36        0.001
         8        31        35        31        36        0.001
         9        31        35        31        36        0.001
        10        31        35        31        36        0.001
        11        31        35        31        36        0.001
        12        31        35        31        36        0.001
        13        31        35        31        36        0.001
        14        31        35        31        36        0.001
        15        31        35        31        36        0.001
        16        31        35        31        36        0.001
        17        31        35        31        36        0.001
        18        31        35        31        36        0.001
        19        31        35        31        36        0.001
        20        31        35        31        36        0.001
         1        30        37        31        37        0.001
         2        30        37        31        37        0.001
         3        30        37        31        37        0.001
         4        30        37        31        37        0.001
         5        30        37        31        37        0.001
         6        30        37        31        37        0.001
         7        30        37        31        37        0.001
         8        30        37        31        37        0.001
         9        30        37        31        37        0.001
        10        30        37        31        37        0.001
        11        30        37        31        37        0.001
        12        30        37        31        37        0.001
        13        30        37        31        37        0.001
        14        30        37        31        37        0.001
        15        30        37        31        37        0.001
        16        30        37        31        37        0.001
        17        30        37        31        37        0.001
        18        30        37        31        37        0.001
        19        30        37        31        37        0.001
        20        30        37        31        37        0.001
         1        30        38        31        38        0.001
         2        30        38        31        38        0.001
         3        30        38        31        38        0.001
         4        30        38        31        38        0.001
         5        30        38        31        38        0.001
         6        30        38        31        38        0.001
         7        30        38        31        38        0.001
         8        30        38        31        38        0.001
         9        30        38        31        38        0.001
        10        30        38        31        38        0.001
        11        30        38        31        38        0.001
        12        30        38        31        38        0.001
        13        30        38        31        38        0.001
        14        30        38        31        38        0.001
        15        30        38        31        38        0.001
        16        30        38        31        38        0.001
        17        30        38        31        38        0.001
        18        30        38        31        38        0.001
        19        30        38        31        38        0.001
        20        30        38        31        38        0.001
         1        30        39        31        39        0.001
         2        30        39        31        39        0.001
         3        30        39        31        39        0.001
         4        30        39        31        39        0.001
         5        30        39        31        39        0.001
         6        30        39        31        39        0.001
         7        30        39        31        39        0.001
         8        30        39        31        39        0.001
         9        30        39        31        39        0.001
        10        30        39        31        39        0.001
        11        30        39        31        39        0.001
        12        30        39        31        39        0.001
        13        30        39        31        39        0.001
        14        30        39        31        39        0.001
        15        30        39        31        39        0.001
        16        30        39        31        39        0.001
        17        30        39        31        39        0.001
        18        30        39        31        39        0.001
        19        30        39        31        39        0.001
        20        30        39        31        39        0.001
         1        30        40        31        40        0.001
         2        30        40        31        40        0.001
         3        30        40        31        40        0.001
         4        30        40        31        40        0.001
         5        30        40        31        40        0.001
         6        30        40        31        40        0.001
         7        30        40        31        40        0.001
         8        30        40        31        40        0.001
         9        30        40        31        40        0.001
        10        30        40        31        40        0.001
        11        30        40        31        40        0.001
        12        30        40        31        40        0.001
        13        30        40        31        40        0.001
        14        30        40        31        40        0.001
        15        30        40        31        40        0.001
        16        30        40        31        40        0.001
        17        30        40        31        40        0.001
        18        30        40        31        40        0.001
        19        30        40        31        40        0.001
        20        30        40        31        40        0.001
         1        30        41        31        41        0.001
         2        30        41        31        41        0.001
         3        30        41        31        41        0.001
         4        30        41        31        41        0.001
         5        30        41        31        41        0.001
         6        30        41        31        41        0.001
         7        30        41        31        41        0.001
         8        30        41        31        41        0.001
         9        30        41        31        41        0.001
        10        30        41        31        41        0.001
        11        30        41        31        41        0.001
        12        30        41        31        41        0.001
        13        30        41        31        41        0.001
        14        30        41        31        41        0.001
        15        30        41        31        41        0.001
        16        30        41        31        41        0.001
        17        30        41        31        41        0.001
        18        30        41        31        41        0.001
        19        30        41        31        41        0.001
        20        30        41        31        41        0.001
         1        30        42        31        42        0.001
         2        30        42        31        42        0.001
         3        30        42        31        42        0.001
         4        30        42        31        42        0.001
         5        30        42        31        42        0.001
         6        30        42        31        42        0.001
         7        30        42        31        42        0.001
         8        30        42        31        42        0.001
         9        30        42        31        42        0.001
        10        30        42        31        42        0.001
        11        30        42        31        42        0.001
        12        30        42        31        42        0.001
        13        30        42        31        42        0.001
        14        30        42        31        42        0.001
        15        30        42        31        42        0.001
        16        30        42        31        42        0.001
        17        30        42        31        42        0.001
        18        30        42        31        42        0.001
        19        30        42        31        42        0.001
        20        30        42        31        42        0.001
         1        30        43        31        43        0.001
         2        30        43        31        43        0.001
         3        30        43        31        43        0.001
         4        30        43        31        43        0.001
         5        30        43        31        43        0.001
         6        30        43        31        43        0.001
         7        30        43        31        43        0.001
         8        30        43        31        43        0.001
         9        30        43        31        43        0.001
        10        30        43        31        43        0.001
        11        30        43        31        43        0.001
        12        30        43        31        43        0.001
        13        30        43        31        43        0.001
        14        30        43        31        43        0.001
        15        30        43        31        43        0.001
        16        30        43        31        43        0.001
        17        30        43        31        43        0.001
        18        30        43        31        43        0.001
        19        30        43        31        43        0.001
        20        30        43        31        43        0.001
         1        30        44        31        44        0.001
         2        30        44        31        44        0.001
         3        30        44        31        44        0.001
         4        30        44        31        44        0.001
         5        30        44        31        44        0.001
         6        30        44        31        44        0.001
         7        30        44        31        44        0.001
         8        30        44        31        44        0.001
         9        30        44        31        44        0.001
        10        30        44        31        44        0.001
        11        30        44        31        44        0.001
        12        30        44        31        44        0.001
        13        30        44        31        44        0.001
        14        30        44        31        44        0.001
        15        30        44        31        44        0.001
        16        30        44        31        44        0.001
        17        30        44        31        44        0.001
        18        30        44        31        44        0.001
        19        30        44        31        44        0.001
        20        30        44        31        44        0.001
         1        30        45        31        45        0.001
         2        30        45        31        45        0.001
         3        30        45        31        45        0.001
         4        30        45        31        45        0.001
         5        30        45        31        45        0.001
         6        30        45        31        45        0.001
         7        30        45        31        45        0.001
         8        30        45        31        45        0.001
         9        30        45        31        45        0.001
        10        30        45        31        45        0.001
        11        30        45        31        45        0.001
        12        30        45        31        45        0.001
        13        30        45        31        45        0.001
        14        30        45        31        45        0.001
        15        30        45        31        45        0.001
        16        30        45        31        45        0.001
        17        30        45        31        45        0.001
        18        30        45        31        45        0.001
        19        30        45        31        45        0.001
        20        30        45        31        45        0.001
         1        30        46        31        46        0.001
         2        30        46        31        46        0.001
         3        30        46        31        46        0.001
         4        30        46        31        46        0.001
         5        30        46        31        46        0.001
         6        30        46        31        46        0.001
         7        30        46        31        46        0.001
         8        30        46        31        46        0.001
         9        30        46        31        46        0.001
        10        30        46        31        46        0.001
        11        30        46        31        46        0.001
        12        30        46        31        46        0.001
        13        30        46        31        46        0.001
        14        30        46        31        46        0.001
        15        30        46        31        46        0.001
        16        30        46        31        46        0.001
        17        30        46        31        46        0.001
        18        30        46        31        46        0.001
        19        30        46        31        46        0.001
        20        30        46        31        46        0.001
         1        30        47        31        47        0.001
         2        30        47        31        47        0.001
         3        30        47        31        47        0.001
         4        30        47        31        47        0.001
         5        30        47        31        47        0.001
         6        30        47        31        47        0.001
         7        30        47        31        47        0.001
         8        30        47        31        47        0.001
         9        30        47        31        47        0.001
        10        30        47        31        47        0.001
        11        30        47        31        47        0.001
        12        30        47        31        47        0.001
        13        30        47        31        47        0.001
        14        30        47        31        47        0.001
        15        30        47        31        47        0.001
        16        30        47        31        47        0.001
        17        30        47        31        47        0.001
        18        30        47        31        47        0.001
        19        30        47        31        47        0.001
        20        30        47        31        47        0.001
         1        31        48        31        49        0.001
         2        31        48        31        49        0.001
         3        31        48        31        49        0.001
         4        31        48        31        49        0.001
         5        31        48        31        49        0.001
         6        31        48        31        49        0.001
         7        31        48        31        49        0.001
         8        31        48        31        49        0.001
         9        31        48        31        49        0.001
        10        31        48        31        49        0.001
        11        31        48        31        49        0.001
        12        31        48        31        49        0.001
        13        31        48        31        49        0.001
        14        31        48        31        49        0.001
        15        31        48        31        49        0.001
        16        31        48        31        49        0.001
        17        31        48        31        49        0.001
        18        31        48        31        49        0.001
        19        31        48        31        49        0.001
        20        31        48        31        49        0.001
         1        30        48        31        48        0.001
         2        30        48        31        48        0.001
         3        30        48        31        48        0.001
         4        30        48        31        48        0.001
         5        30        48        31        48        0.001
         6        30        48        31        48        0.001
         7        30        48        31        48        0.001