# Name file for MT3D-USGS, generated by Flopy version 3.2.13.
LIST              16  Griftpark_doubleQ_mt.list
FTL               10  mt3d_link.ftl 
BTN               31  Griftpark_doubleQ_mt.btn 
ADV               32  Griftpark_doubleQ_mt.adv 
DSP               33  Griftpark_doubleQ_mt.dsp 
RCT               36  Griftpark_doubleQ_mt.rct 
SSM               34  Griftpark_doubleQ_mt.ssm 
GCG               35  Griftpark_doubleQ_mt.gcg 
