# WEL package for  MODFLOW-2005, generated by Flopy.
        30      1001 
        30         0 # stress period 1
         9        73        52      -14.328359
        10        73        52      -23.880596
        11        73        52      -23.880596
        12        73        52      -23.880596
        13        73        52      -23.880596
        14        73        52      -11.940298
        15        73        52      -11.940298
        16        73        52      -11.940298
        17        73        52      -11.940298
        18        73        52      -2.3880596
         9        43        45      -14.328359
        10        43        45      -23.880596
        11        43        45      -23.880596
        12        43        45      -23.880596
        13        43        45      -23.880596
        14        43        45      -11.940298
        15        43        45      -11.940298
        16        43        45      -11.940298
        17        43        45      -11.940298
        18        43        45      -2.3880596
         9        50        35      -14.328359
        10        50        35      -23.880596
        11        50        35      -23.880596
        12        50        35      -23.880596
        13        50        35      -23.880596
        14        50        35      -11.940298
        15        50        35      -11.940298
        16        50        35      -11.940298
        17        50        35      -11.940298
        18        50        35      -2.3880596
