# LPF package for  MODFLOW-2005, generated by Flopy.
      1001    -1E+30         0  
         0         0         0         0         0         0         0         0         0         0         0         0         0         0         0         0         0         0         0         0         0         0         0         0         0         0         0         0         0
         0         0         0         0         0         0         0         0         0         0         0         0         0         0         0         0         0         0         0         0         0         0         0         0         0         0         0         0         0
   1.000000E+00   1.000000E+00   1.000000E+00   1.000000E+00   1.000000E+00   1.000000E+00   1.000000E+00   1.000000E+00   1.000000E+00   1.000000E+00   1.000000E+00   1.000000E+00   1.000000E+00   1.000000E+00   1.000000E+00   1.000000E+00   1.000000E+00   1.000000E+00   1.000000E+00   1.000000E+00   1.000000E+00   1.000000E+00   1.000000E+00   1.000000E+00   1.000000E+00   1.000000E+00   1.000000E+00   1.000000E+00   1.000000E+00
         0         0         0         0         0         0         0         0         0         0         0         0         0         0         0         0         0         0         0         0         0         0         0         0         0         0         0         0         0
         0         0         0         0         0         0         0         0         0         0         0         0         0         0         0         0         0         0         0         0         0         0         0         0         0         0         0         0         0
INTERNAL               1  (51E15.6) -1 #hk layer 1                    
   1.876370E+00   1.515981E-01   5.016586E-01   1.779276E+00   2.759072E-01   3.274198E-01   1.848964E-01   2.648114E-02   6.858849E-02   1.317809E-01   2.851011E-01   7.000790E-01   1.867087E+00   4.814093E+00   1.034298E+01   1.662467E+01   1.965058E+01   1.587857E+01   6.590493E+00   9.144657E-01   4.726258E-02   4.324477E-03   2.197533E-03   4.156659E-03   1.257745E-02   2.436582E-02   1.460840E-02   6.722032E-03   1.496646E-02   1.500277E-01   7.449848E-01   1.505116E+00   2.239219E+00   2.655353E+00   2.758696E+00   2.747761E+00   2.884390E+00   3.531308E+00   5.437641E+00   1.045808E+01   5.180009E+01   1.159034E+01   1.270848E+01   5.843288E+00   1.293491E+01   8.777952E-01   3.360605E+00   1.352597E-01   2.943805E-02   6.552036E-01   9.328677E-01
   9.442068E-02   1.267953E-01   2.681111E-01   6.573579E-02   1.003674E-02   3.304158E-01   6.658205E-01   2.070323E-01   1.673204E-01   1.531805E-01   1.566321E-01   1.988626E-01   3.206677E-01   6.047475E-01   1.161660E+00   2.034121E+00   3.155250E+00   5.285033E+00   9.484720E+00   9.838968E+00   4.623229E+00   1.494598E+00   3.353051E-01   5.212788E-02   1.520272E-02   1.438657E-02   1.757497E-02   1.579192E-02   1.822241E-02   3.334497E-02   6.078399E-02   1.033418E-01   1.987744E-01   4.193723E-01   8.829762E-01   1.664724E+00   2.665088E+00   3.751449E+00   5.073819E+00   7.024242E+00   1.063304E+01   8.775929E-01   7.118214E-01   5.938088E+00   9.688587E+00   1.077383E+00   5.726582E+00   1.612393E+00   2.962169E-01   5.763103E-01   8.087831E+00
   5.769272E-02   2.054166E-01   2.363987E-01   1.883599E-01   1.832897E-01   1.961761E-01   3.323049E+00   4.537506E+00   4.518982E+00   4.481831E+00   4.744156E+00   5.425337E+00   6.249207E+00   6.345848E+00   5.040440E+00   3.059563E+00   1.570677E+00   6.220305E-01   3.691577E-01   3.937791E-01   4.729429E-01   5.750932E-01   4.776452E-01   2.608487E-01   2.126579E-01   2.517660E-01   1.350279E-01   3.314889E-02   1.524146E-02   2.655141E-02   7.731358E-02   1.907848E-01   4.687787E-01   9.657090E-01   1.402167E+00   1.311041E+00   8.433133E-01   4.675672E-01   3.016794E-01   2.888572E-01   2.564414E+00   7.686586E+00   7.504249E-02   4.697528E+00   2.618268E+00   2.845730E-01   3.356912E+00   3.765825E+00   1.645678E+00   2.483202E+00   2.472541E+00
   1.587062E-01   6.878103E-01   3.121889E+00   1.330339E-01   2.099221E-02   1.759218E+00   1.583806E+02   1.909744E+00   1.125439E+00   2.036724E+00   5.138774E+00   1.554630E+01   4.376486E+01   8.559689E+01   9.333631E+01   5.373219E+01   1.856939E+01   2.454530E+00   2.286636E-01   5.285185E-02   3.595988E-02   6.286202E-02   1.220112E-01   1.902834E-01   4.900734E-01   2.009030E+00   4.797071E+00   6.110017E+00   7.562018E+00   7.916575E+00   6.261601E+00   4.851507E+00   3.572596E+00   2.390326E+00   1.353396E+00   6.355907E-01   2.728330E-01   1.325530E-01   9.371711E-02   1.148967E-01   3.197996E+00   2.702357E+01   4.336314E-02   3.267273E+00   1.120383E+00   9.718843E-01   4.193071E+00   1.769553E+01   5.369918E-01   1.803885E+00   7.479252E-01
   7.558059E-01   2.490869E-01   7.308604E+00   4.492943E-01   4.342666E-02   1.615283E+01   1.624942E+02   2.817216E+00   1.643697E+00   1.842429E+00   2.567525E+00   4.413590E+00   8.459576E+00   1.537090E+01   2.282906E+01   2.581838E+01   2.254181E+01   1.240007E+01   3.274614E+00   6.088616E-01   2.654371E-01   6.230478E-01   2.547827E+00   4.088627E+00   2.400520E+00   9.104509E-01   4.208800E-01   5.175566E-01   1.262267E+00   1.495402E+00   8.689575E-01   5.814305E-01   4.488449E-01   4.070512E-01   3.943982E-01   3.597263E-01   2.891348E-01   2.126324E-01   1.607136E-01   1.425551E-01   5.566969E-01   6.274592E+01   9.635173E-02   4.286644E-01   1.936569E+00   6.837556E-02   2.874916E-01   7.477297E+00   6.140181E+00   2.720561E+01   1.499766E-01
   7.081354E-01   1.382595E-01   3.402095E+01   4.309892E+01   2.697055E+01   4.992634E+00   2.887865E+00   1.304980E+00   4.472784E+00   6.982550E+00   1.045070E+01   1.405043E+01   1.552014E+01   1.325489E+01   8.977860E+00   5.449294E+00   3.483563E+00   2.388303E+00   1.871741E+00   9.446946E-01   5.024197E-01   6.927631E-01   1.411085E+00   1.435993E+00   5.771232E-01   1.321531E-01   4.699863E-02   8.508256E-02   4.579914E-01   1.089990E+00   8.866777E-01   6.769668E-01   5.530512E-01   4.955762E-01   4.527444E-01   3.851392E-01   2.962520E-01   2.180801E-01   1.710061E-01   1.577182E-01   4.835443E-01   1.390554E+01   3.836901E-01   5.947122E-01   5.127277E-01   1.369190E+00   6.429916E+00   3.094503E+02   8.977554E+01   1.903727E+01   3.549769E+00
   3.084703E-01   1.587884E-02   3.919775E-02   1.589329E-02   1.848813E+00   1.250229E+00   1.493612E-01   8.626493E-02   3.767663E-01   8.949746E-01   2.286983E+00   5.402421E+00   1.003254E+01   1.344081E+01   1.367964E+01   1.256480E+01   1.264133E+01   1.715887E+01   2.160789E+01   4.787349E+00   2.377502E-01   1.581722E-02   4.785814E-03   8.707223E-03   5.040173E-02   2.180616E-01   3.654313E-01   4.531392E-01   4.681688E-01   2.483871E-01   1.417081E-01   1.273775E-01   1.469732E-01   1.913370E-01   2.285705E-01   2.114141E-01   1.445671E-01   7.994397E-02   4.237790E-02   2.563713E-02   3.817051E-02   2.005780E+00   7.782775E-01   3.837355E+00   3.305698E-01   1.039159E-01   3.493820E-01   2.575215E+02   1.438308E+01   2.945975E+00   1.415316E+01
   8.712456E-01   9.464066E-02   6.825500E-03   5.161767E-02   5.072516E+00   1.679389E+00   2.802320E-01   8.189099E-02   1.678365E+00   5.964841E+00   1.759099E+01   3.491636E+01   4.079696E+01   2.884338E+01   1.533981E+01   8.609443E+00   6.965274E+00   1.238429E+01   5.282568E+01   5.757325E+01   1.031321E+01   1.136478E+00   2.478344E-01   1.600568E-01   1.609285E-01   7.934970E-02   2.587546E-02   2.624194E-02   9.242790E-02   2.945067E-01   4.729079E-01   5.907440E-01   6.933932E-01   7.276757E-01   6.460445E-01   4.871719E-01   3.400457E-01   2.500597E-01   2.147709E-01   2.216858E-01   4.714600E-01   9.023590E-01   1.340628E-01   2.013554E+00   2.047284E+00   1.783175E-01   1.561444E+00   5.166977E+01   3.604974E+00   1.452724E+00   1.388667E+01
   1.498801E+01   2.862111E+00   9.725077E-02   4.318150E-03   3.575063E-01   1.173519E+00   8.076072E-02   1.961461E-01   4.684902E+00   9.635095E+00   1.404096E+01   1.352262E+01   8.620654E+00   4.115315E+00   1.879402E+00   1.096529E+00   1.006597E+00   2.055429E+00   7.988400E+00   9.957127E+00   3.909892E+00   9.890431E-01   2.059161E-01   4.658959E-02   1.320231E-02   4.240910E-03   3.441799E-03   2.107448E-02   4.732950E-01   6.270649E+00   1.891974E+01   2.562110E+01   2.416552E+01   1.547391E+01   6.959742E+00   2.523603E+00   9.211735E-01   4.243062E-01   2.832757E-01   2.765771E-01   9.642752E-01   1.009737E+01   3.539817E+00   2.997437E+00   6.312044E-01   5.317247E-02   1.244091E+00   4.286333E-01   1.604480E-01   7.810823E+00   1.169754E+00
   6.291341E-01   2.990452E-01   1.413039E-02   5.217411E-03   1.360391E+00   3.957262E+00   2.548931E-02   5.176677E-02   3.268459E-01   4.504079E-01   5.799876E-01   7.321461E-01   9.382064E-01   1.278667E+00   1.965979E+00   3.518868E+00   6.978448E+00   1.655036E+01   1.836954E+01   7.992887E+00   6.503586E+00   1.070175E+01   7.426162E+00   1.275364E+00   1.525511E-01   4.575306E-02   8.361398E-02   6.466391E-01   3.502593E+00   5.347363E+00   6.299103E+00   8.561193E+00   1.339698E+01   2.084297E+01   2.757883E+01   2.856793E+01   2.334643E+01   1.588011E+01   9.371577E+00   4.848133E+00   4.533532E-01   3.430589E-01   5.828006E-01   1.120301E+00   3.286681E+00   5.486746E-01   8.691062E-01   5.199846E-02   2.015373E-02   1.006962E-01   2.053390E-01
   1.014278E+00   4.375767E-02   5.807673E-02   1.689995E-01   1.148286E+00   6.217720E-01   3.326667E-02   3.371238E-02   3.935953E-02   4.173648E-02   4.991581E-02   6.850300E-02   1.064934E-01   1.852049E-01   3.558675E-01   7.188070E-01   1.346847E+00   1.974632E+00   6.676206E-01   1.122989E-01   1.009518E-01   6.421579E-01   4.472401E+00   9.072231E+00   4.955113E+00   1.341570E+00   5.579250E-01   5.830643E-01   6.968048E-01   7.026815E-01   1.015480E+00   1.641742E+00   2.756462E+00   4.014761E+00   4.526859E+00   3.990401E+00   3.066987E+00   2.333664E+00   1.883084E+00   1.598362E+00   1.009881E+00   1.587845E+00   3.730890E+00   8.131675E-01   1.295804E+00   4.453651E+00   1.607562E+00   6.806459E-02   3.339196E-02   2.093281E-01   1.930970E-01
   5.002409E+00   1.105032E+00   9.980824E+00   3.524592E+00   1.077930E+00   7.337187E-01   2.282236E+00   1.276910E+00   5.464122E-01   5.528983E-01   6.290750E-01   7.087845E-01   7.109657E-01   6.232200E-01   5.133148E-01   4.398076E-01   4.132507E-01   4.161713E-01   3.668429E-01   3.943237E-01   1.026399E+00   3.824718E+00   8.360318E+00   1.119072E+01   9.789798E+00   4.504517E+00   1.790901E+00   1.062043E+00   6.913026E-01   4.859160E-01   5.489741E-01   7.111762E-01   9.280797E-01   1.095499E+00   1.145740E+00   1.147430E+00   1.234287E+00   1.519638E+00   2.060467E+00   2.736918E+00   2.527829E+00   1.203200E+00   1.177242E+00   1.552101E-01   5.069322E+00   6.513847E+01   1.112205E+00   1.548858E-01   2.436412E-01   1.626700E+01   2.776746E-01
   1.044399E+01   4.932088E+00   4.996755E+01   8.130603E+01   2.437137E+00   2.050134E+00   5.453625E+01   1.538301E+01   1.259167E+00   5.833043E-01   2.726289E-01   1.176843E-01   4.579716E-02   1.767298E-02   8.193515E-03   5.570429E-03   6.198670E-03   1.753494E-02   1.625960E-01   1.968845E+00   1.668355E+01   4.590902E+01   4.756953E+01   4.705635E+01   3.648795E+01   9.277841E+00   1.262792E+00   3.056223E-01   1.855334E-01   2.645871E-01   5.327176E-01   8.667480E-01   1.210384E+00   1.351319E+00   1.251567E+00   1.076740E+00   9.538033E-01   8.812618E-01   7.754231E-01   5.713455E-01   8.203349E-02   7.656707E-02   3.740286E-01   5.553719E-01   4.355835E+00   1.348181E+01   1.841931E-01   1.163458E-01   7.082751E+00   2.399935E-01   2.450141E-02
   1.792567E-01   1.145953E+00   7.452040E+00   1.849880E+01   3.688620E+00   2.447562E+00   6.344494E+00   6.327984E+00   1.921960E+00   1.274725E+00   8.859156E-01   6.318272E-01   4.690619E-01   3.894650E-01   3.964978E-01   5.147387E-01   7.982433E-01   1.511082E+00   1.668055E+00   7.993234E-01   2.979003E-01   1.213044E-01   1.255895E-01   7.116191E-01   7.309903E+00   2.160554E+01   1.496897E+01   5.852519E+00   2.403343E+00   1.797238E+00   2.332977E+00   2.837110E+00   2.949323E+00   2.428240E+00   1.633792E+00   9.923323E-01   5.924306E-01   3.508286E-01   1.945857E-01   9.645478E-02   1.940262E-02   2.250903E+00   1.088100E+00   2.446255E-02   3.339604E-01   4.827822E-01   1.534711E-02   4.437178E-02   1.149967E+00   1.371135E-01   3.961130E-02
   3.930695E-02   7.812351E-01   1.889278E+00   1.573238E+01   1.196726E+01   2.438147E+01   2.340294E+01   7.395371E-01   2.554852E-01   3.111535E-01   4.728363E-01   8.085161E-01   1.446634E+00   2.655441E+00   5.002679E+00   9.337618E+00   1.566450E+01   2.078471E+01   1.081202E+01   3.262269E+00   9.804029E-01   2.583195E-01   1.231428E-01   3.242567E-01   2.628564E+00   1.261213E+01   1.589851E+01   5.157581E+00   8.034392E-01   2.713894E-01   3.422348E-01   5.491819E-01   8.802601E-01   1.198380E+00   1.314472E+00   1.201065E+00   9.626858E-01   6.896729E-01   4.386156E-01   2.535981E-01   1.139620E-01   5.073063E+00   2.890555E-01   2.387641E-03   7.231359E-03   2.609481E-02   8.783136E-03   1.096222E-01   1.233544E+01   1.589754E+00   4.068283E-02
   5.650423E-01   5.522857E+01   6.220977E+01   3.817583E+01   2.579347E+01   1.003625E+01   1.291516E+00   4.588213E+00   1.702200E+00   1.037026E+00   6.277763E-01   3.821622E-01   2.443636E-01   1.767425E-01   1.534880E-01   1.592355E-01   1.825117E-01   2.207151E-01   2.482456E-01   3.939659E-01   6.920794E-01   5.064412E-01   2.040855E-01   1.354688E-01   1.436796E-01   1.319541E-01   1.001668E-01   6.556930E-02   4.911255E-02   1.037283E-01   3.703929E-01   8.707461E-01   1.562768E+00   1.922839E+00   1.694062E+00   1.236598E+00   8.762795E-01   6.687154E-01   5.734242E-01   5.641360E-01   1.676023E+00   4.037210E+00   4.508006E-02   1.762231E-02   9.654436E-01   1.187939E+00   2.465228E-02   4.501050E-01   2.184995E+01   1.116057E+00   1.133779E-01
   4.508347E+00   1.587983E+01   2.170870E+00   2.444739E+00   2.220222E+01   2.126760E+01   1.330757E+00   4.272596E+00   9.476853E-01   5.028856E-01   2.745637E-01   1.575127E-01   9.923382E-02   7.275825E-02   6.390876E-02   6.496097E-02   7.020691E-02   7.856522E-02   1.095740E-01   4.074499E-01   2.573728E+00   6.520904E+00   5.060642E+00   2.259419E+00   7.345527E-01   2.967041E-01   3.835124E-01   1.493781E+00   7.977415E+00   3.925542E+01   9.011858E+01   1.009578E+02   7.632209E+01   4.285492E+01   2.179752E+01   1.234752E+01   8.739609E+00   7.597203E+00   7.264957E+00   6.789782E+00   3.425302E+00   2.850879E-01   1.386528E-01   5.236229E-01   1.569077E+02   1.310857E+01   1.187421E-01   6.553001E-01   3.810318E+00   8.377666E-01   7.597323E-02
   3.005823E-01   2.827922E+00   1.795567E+00   8.562623E-01   1.430394E+00   3.098761E+00   3.298960E+00   7.509114E-01   2.173657E-01   2.341800E-01   2.966388E-01   3.973223E-01   5.234954E-01   6.539836E-01   7.500943E-01   7.529892E-01   6.349022E-01   3.831137E-01   2.688578E-01   7.816465E-01   4.847211E+00   1.326990E+01   1.433120E+01   1.259315E+01   1.054974E+01   1.081950E+01   2.081890E+01   5.575228E+01   1.484829E+02   4.514473E+02   8.355484E+02   7.792344E+02   4.570607E+02   1.816498E+02   5.948070E+01   2.003539E+01   8.083923E+00   4.079467E+00   2.483928E+00   1.729407E+00   9.470758E-01   6.075463E-02   1.040598E-01   1.662899E+00   3.765666E+01   9.385548E+00   5.874168E+00   1.383582E+01   8.387452E-02   1.316984E-02   3.015396E-01
   8.837009E+00   6.847201E+00   6.122870E-01   3.238156E-02   1.512722E-01   1.603162E+00   2.106953E-01   2.733079E-02   1.201885E-02   1.472973E-02   2.124979E-02   3.389432E-02   5.699205E-02   9.525728E-02   1.423974E-01   1.637722E-01   1.265180E-01   4.054898E-02   5.363228E-03   2.266866E-03   3.913535E-03   1.084778E-02   3.904077E-02   1.984204E-01   1.080158E+00   6.315021E+00   3.283179E+01   6.361232E+01   4.883235E+01   5.514521E+01   9.796925E+01   1.294079E+02   1.286829E+02   8.818134E+01   4.221093E+01   1.521966E+01   4.548023E+00   1.254246E+00   3.665927E-01   1.353815E-01   1.020071E-01   1.453441E-01   4.514955E-02   3.646875E+00   7.485443E+01   6.709656E+00   5.958654E+00   2.720631E+00   7.668053E-03   6.040775E-03   3.109507E-02
   3.810359E+00   1.786391E+01   1.864997E+00   6.947774E-02   1.236933E-02   2.588126E-01   4.479145E-01   4.907619E-02   5.773744E-02   7.259635E-02   7.971483E-02   7.228287E-02   5.600457E-02   3.994942E-02   2.749887E-02   1.808047E-02   1.098022E-02   4.784218E-03   2.598386E-03   5.991052E-03   3.186966E-02   1.205220E-01   3.028425E-01   6.949942E-01   1.674064E+00   6.451813E+00   3.090864E+01   4.840229E+01   2.039484E+01   1.123665E+01   1.497570E+01   2.152395E+01   2.927637E+01   3.294533E+01   2.812432E+01   1.725638E+01   7.429549E+00   2.322609E+00   6.003523E-01   1.608582E-01   3.186682E-02   3.382570E-02   4.828084E-02   3.771132E+00   1.675879E+01   2.901244E+00   3.562521E+00   3.621459E-01   2.279285E-02   1.679345E-02   3.857528E-02
   2.470651E+00   1.763277E+01   2.050218E+00   8.439034E-02   1.424763E-02   2.558463E-01   7.294152E-01   9.027670E-02   9.705918E-02   1.045965E-01   9.127343E-02   6.239663E-02   3.607829E-02   2.004055E-02   1.179771E-02   7.571190E-03   5.208850E-03   3.517828E-03   4.263894E-03   1.799746E-02   1.079129E-01   3.107817E-01   5.124651E-01   7.770091E-01   1.368652E+00   4.638189E+00   2.357177E+01   4.309254E+01   2.068926E+01   1.168063E+01   1.495066E+01   2.089744E+01   2.813905E+01   3.212095E+01   2.833634E+01   1.801874E+01   7.915445E+00   2.452694E+00   6.080716E-01   1.519471E-01   2.265046E-02   1.876703E-02   3.795224E-02   2.394030E+00   8.956587E+00   3.809128E+00   5.571424E+00   2.263440E-01   3.212146E-02   2.831134E-02   7.250601E-02
   1.381217E+00   1.448002E+01   2.337706E+00   1.090551E-01   3.088692E-02   3.964651E-01   1.111743E+00   2.063342E-01   1.813611E-01   1.551602E-01   1.004767E-01   4.947936E-02   2.106120E-02   9.291867E-03   4.904245E-03   3.270654E-03   2.713910E-03   3.013169E-03   7.814670E-03   5.054418E-02   2.773654E-01   5.513523E-01   6.436623E-01   7.746350E-01   1.154443E+00   3.461609E+00   1.682897E+01   3.308637E+01   1.892531E+01   1.275862E+01   1.760651E+01   2.508906E+01   3.385938E+01   3.830863E+01   3.316489E+01   2.043100E+01   8.556415E+00   2.489282E+00   5.740666E-01   1.333268E-01   1.653526E-02   1.068002E-02   2.431710E-02   1.277325E+00   5.514216E+00   7.772062E+00   1.079538E+01   1.511827E-01   4.584160E-02   7.250854E-02   1.965889E-01
   6.226804E-01   1.124646E+01   3.338573E+00   1.543716E-01   9.793494E-02   8.855377E-01   1.727577E+00   5.917119E-01   3.780727E-01   2.410250E-01   1.101478E-01   3.807230E-02   1.196541E-02   4.315938E-03   2.137418E-03   1.554879E-03   1.614275E-03   2.964033E-03   1.477040E-02   1.203380E-01   5.135679E-01   6.962767E-01   6.779814E-01   8.270416E-01   1.232769E+00   3.206329E+00   1.240777E+01   2.133479E+01   1.337687E+01   1.166992E+01   1.959440E+01   3.081862E+01   4.431306E+01   5.141054E+01   4.389258E+01   2.569141E+01   9.914120E+00   2.610579E+00   5.445279E-01   1.161740E-01   1.278783E-02   6.597188E-03   1.368857E-02   6.725764E-01   3.879619E+00   1.945124E+01   2.084564E+01   1.130867E-01   7.166559E-02   2.811477E-01   7.067477E-01
   2.385615E-01   9.649666E+00   6.240639E+00   2.274805E-01   3.308645E-01   2.409344E+00   3.016153E+00   1.971055E+00   7.946115E-01   3.642581E-01   1.161575E-01   2.866295E-02   6.935860E-03   2.165640E-03   1.067087E-03   8.863205E-04   1.175705E-03   3.471006E-03   2.913054E-02   2.545678E-01   7.768019E-01   7.559676E-01   7.243556E-01   1.088769E+00   1.831233E+00   4.023178E+00   1.046879E+01   1.258149E+01   7.338333E+00   8.015716E+00   1.732256E+01   3.195826E+01   5.226955E+01   6.597079E+01   5.809720E+01   3.320204E+01   1.193435E+01   2.843438E+00   5.343463E-01   1.047505E-01   1.094906E-02   5.056705E-03   7.908190E-03   3.990941E-01   2.818071E+00   4.126670E+01   3.234911E+01   1.055083E-01   1.264863E-01   1.247303E+00   2.702103E+00
   9.181201E-02   1.018665E+01   1.322440E+01   3.179410E-01   9.498795E-01   6.458777E+00   5.777633E+00   6.451070E+00   1.467094E+00   4.891967E-01   1.138597E-01   2.158346E-02   4.397317E-03   1.298723E-03   6.831929E-04   6.733656E-04   1.140932E-03   5.059389E-03   6.147322E-02   5.175873E-01   1.139571E+00   8.799739E-01   9.293733E-01   1.849880E+00   3.594875E+00   6.555876E+00   1.074046E+01   7.970258E+00   3.670941E+00   4.330809E+00   1.132763E+01   2.433067E+01   4.609924E+01   6.580045E+01   6.293148E+01   3.712825E+01   1.310732E+01   2.959267E+00   5.210136E-01   9.720036E-02   1.097921E-02   5.881965E-03   5.619078E-03   2.707451E-01   1.849362E+00   5.471989E+01   3.531010E+01   1.332388E-01   2.367155E-01   4.075202E+00   8.354526E+00
   4.318220E-02   1.354862E+01   2.478432E+01   3.911619E-01   2.145134E+00   1.381761E+01   1.012252E+01   1.699977E+01   2.200907E+00   5.731931E-01   1.079437E-01   1.775958E-02   3.441487E-03   1.063112E-03   6.343870E-04   7.492606E-04   1.555843E-03   9.076138E-03   1.316220E-01   1.001296E+00   1.764151E+00   1.266465E+00   1.577608E+00   3.921890E+00   8.029922E+00   1.192762E+01   1.305770E+01   6.210646E+00   2.066016E+00   2.121255E+00   5.617225E+00   1.281808E+01   2.667244E+01   4.265303E+01   4.575245E+01   2.973053E+01   1.121682E+01   2.628586E+00   4.732707E-01   9.093422E-02   1.363949E-02   1.226473E-02   5.567070E-03   1.888846E-01   1.017026E+00   4.175102E+01   2.631543E+01   2.180694E-01   4.092849E-01   6.822843E+00   1.706264E+01
   2.815717E-02   2.162731E+01   3.325759E+01   4.158738E-01   3.889417E+00   2.012059E+01   1.263875E+01   3.108422E+01   2.762325E+00   6.360008E-01   1.117006E-01   1.840098E-02   3.833421E-03   1.343010E-03   9.308414E-04   1.266181E-03   2.925128E-03   1.820029E-02   2.454189E-01   1.615981E+00   2.730008E+00   2.285784E+00   3.583454E+00   9.670754E+00   1.721175E+01   1.975500E+01   1.650222E+01   6.005308E+00   1.478841E+00   1.081416E+00   2.298149E+00   4.822664E+00   9.910730E+00   1.686273E+01   2.045214E+01   1.556825E+01   6.938392E+00   1.901596E+00   3.947053E-01   8.690470E-02   2.151277E-02   4.533391E-02   7.774846E-03   1.195461E-01   4.914647E-01   2.137672E+01   1.388143E+01   3.806421E-01   5.726118E-01   5.466790E+00   2.205717E+01
   2.813614E-02   4.875644E+01   2.371835E+01   3.796708E-01   6.415781E+00   1.511732E+01   6.811801E+00   3.511802E+01   3.465621E+00   8.760030E-01   1.815999E-01   3.777931E-02   1.029370E-02   4.626303E-03   3.796280E-03   5.379731E-03   1.118646E-02   4.746675E-02   3.381398E-01   1.653754E+00   3.855953E+00   6.671927E+00   1.751414E+01   4.031369E+01   3.679710E+01   2.307768E+01   1.585156E+01   6.036575E+00   1.262036E+00   4.881391E-01   5.427028E-01   7.935331E-01   1.316370E+00   2.191522E+00   3.155580E+00   3.326437E+00   2.248777E+00   9.597472E-01   3.032659E-01   9.698585E-02   5.991313E-02   4.984812E-01   1.989667E-02   5.306381E-02   1.889950E-01   6.295604E+00   3.049252E+00   5.721840E-01   6.172215E-01   1.920156E+00   1.771642E+01
   5.217741E-02   1.019840E+02   5.857338E+00   3.172442E-01   5.009932E+00   3.620697E+00   1.010107E+00   1.596543E+01   5.097585E+00   2.060111E+00   6.980478E-01   2.344356E-01   9.597355E-02   5.587524E-02   4.759240E-02   5.367661E-02   6.851526E-02   9.958357E-02   1.733214E-01   5.094733E-01   2.568037E+00   1.888599E+01   1.194093E+02   1.656818E+02   3.454523E+01   6.243279E+00   3.529188E+00   2.561314E+00   9.294227E-01   2.613080E-01   1.366730E-01   1.178799E-01   1.335531E-01   1.956680E-01   3.328840E-01   5.396665E-01   6.692227E-01   5.571177E-01   3.267815E-01   1.700328E-01   1.727412E-01   2.683809E+00   7.273470E-02   4.300584E-02   1.385429E-01   1.398152E+00   2.020417E-01   2.906564E-01   6.206215E-01   1.266489E+00   1.150232E+01
   9.513350E-02   4.569827E+01   7.832674E-01   3.543972E-01   1.304956E+00   6.077170E-01   2.069836E-01   4.502800E+00   5.650145E+00   3.704785E+00   1.945228E+00   9.440522E-01   5.073776E-01   3.417279E-01   2.884537E-01   2.723809E-01   2.487386E-01   1.785378E-01   1.203762E-01   2.224287E-01   1.471825E+00   2.162210E+01   1.905766E+02   1.469482E+02   8.879355E+00   5.688554E-01   2.764316E-01   4.396121E-01   4.952194E-01   2.736712E-01   1.402250E-01   9.932378E-02   8.851590E-02   1.070621E-01   1.683527E-01   2.890226E-01   4.263223E-01   4.495869E-01   3.311678E-01   1.995685E-01   1.355105E-01   1.159409E+00   2.582542E-01   3.005515E-01   1.933897E-01   1.873948E-01   2.010569E-02   1.407457E-01   1.043244E+00   4.666617E+00   9.769432E+00
   7.248321E-02   2.985224E+00   9.597720E-02   5.990900E-01   2.600522E-01   8.263966E-02   6.543153E-02   1.058380E+00   3.600267E+00   3.221327E+00   2.135049E+00   1.209327E+00   7.128198E-01   5.061997E-01   4.430211E-01   4.347575E-01   4.189880E-01   3.358151E-01   2.569387E-01   4.342662E-01   1.954728E+00   1.633264E+01   7.921481E+01   3.658960E+01   1.617820E+00   9.466268E-02   5.117341E-02   1.239824E-01   3.198802E-01   4.514014E-01   3.568656E-01   2.673264E-01   2.071633E-01   1.848402E-01   1.930058E-01   2.136096E-01   2.129867E-01   1.693204E-01   1.081588E-01   6.453380E-02   5.934517E-02   7.803682E-01   1.125322E+00   2.567404E+00   1.284188E-01   3.039250E-02   2.354869E-02   1.807379E-01   7.213312E-01   9.969939E+00   8.875944E+00
   2.009845E-02   1.774040E-01   4.307074E-02   9.851755E-01   6.415761E-02   8.941453E-03   1.520832E-02   2.814520E-01   2.237513E+00   2.493320E+00   1.883715E+00   1.117324E+00   6.478063E-01   4.391912E-01   3.696093E-01   3.640722E-01   3.777672E-01   3.911012E-01   4.762729E-01   9.935839E-01   3.188224E+00   1.259436E+01   3.016618E+01   1.126218E+01   7.154502E-01   6.802192E-02   3.944081E-02   7.216712E-02   1.759642E-01   3.870561E-01   4.712393E-01   4.194255E-01   3.246494E-01   2.374565E-01   1.715767E-01   1.198845E-01   7.690339E-02   4.496490E-02   2.632548E-02   1.851586E-02   7.386661E-02   3.864655E+00   3.325639E+00   2.283090E+00   4.571510E-02   4.502730E-02   3.855854E-01   2.460560E-01   6.993539E-02   5.624177E+00   8.112418E+00
   1.131895E-02   9.485680E-02   1.293482E-01   9.385523E-01   1.635417E-02   1.702226E-03   4.827138E-03   1.659049E-01   2.603152E+00   3.413970E+00   2.864507E+00   1.779337E+00   1.020809E+00   6.489643E-01   4.885824E-01   4.167393E-01   3.706681E-01   3.151271E-01   3.320866E-01   6.409909E-01   1.814147E+00   6.048263E+00   1.349340E+01   6.402745E+00   7.223906E-01   1.118780E-01   5.711015E-02   5.232382E-02   6.866765E-02   1.423185E-01   2.254149E-01   2.489167E-01   2.289564E-01   1.835225E-01   1.337210E-01   8.983190E-02   5.622820E-02   3.481032E-02   2.447360E-02   2.345528E-02   2.705066E-01   9.754572E+00   3.299248E+00   5.798532E-01   2.413253E-02   3.228586E-01   7.741199E+00   3.940294E-01   8.813325E-03   2.967456E+00   6.648033E+00
   6.541053E-02   4.292518E-01   6.219688E-01   7.107708E-01   5.954440E-03   9.502111E-04   4.753409E-03   3.340497E-01   7.336450E+00   9.797074E+00   8.058961E+00   4.773145E+00   2.544605E+00   1.453750E+00   9.401733E-01   6.541303E-01   4.526215E-01   2.503842E-01   1.501526E-01   1.900760E-01   4.526612E-01   1.665297E+00   5.013872E+00   3.836118E+00   8.233694E-01   2.227617E-01   1.255396E-01   7.754330E-02   6.002460E-02   9.030502E-02   1.370424E-01   1.604183E-01   1.654619E-01   1.559095E-01   1.393274E-01   1.197299E-01   9.993998E-02   8.512823E-02   8.236042E-02   1.027184E-01   9.367919E-01   2.075229E+00   1.560292E+00   3.601108E-01   1.937793E-02   8.575287E-01   2.779515E+01   2.756234E+00   2.334875E-02   2.170885E+00   4.566035E+00
   1.233961E+00   3.357708E+00   1.708488E+00   7.877118E-01   5.359764E-03   1.056555E-03   7.718066E-03   8.209675E-01   2.107086E+01   2.557515E+01   1.785787E+01   8.565687E+00   3.610201E+00   1.623300E+00   8.359708E-01   4.755396E-01   2.798583E-01   1.331385E-01   7.476137E-02   9.449229E-02   2.305650E-01   9.164941E-01   3.181959E+00   3.204211E+00   1.133898E+00   5.641940E-01   4.850769E-01   3.243414E-01   2.047634E-01   2.150987E-01   2.526173E-01   2.654454E-01   2.677932E-01   2.726254E-01   2.894844E-01   3.180581E-01   3.521152E-01   3.928695E-01   4.633780E-01   6.152575E-01   1.975819E+00   2.652483E-01   1.019942E+00   5.996890E-01   1.957689E-02   5.419794E-01   2.523557E+01   3.126859E+01   6.457354E-01   1.803624E+00   3.798414E+00
   8.828718E+00   1.684152E+01   6.313133E+00   1.571442E+00   1.152988E-02   1.721032E-03   7.024071E-03   3.728351E-01   1.172470E+01   1.447115E+01   9.643266E+00   4.163396E+00   1.518846E+00   5.858871E-01   2.663589E-01   1.431173E-01   8.780425E-02   5.474146E-02   5.587004E-02   1.201619E-01   3.691095E-01   1.430199E+00   4.472291E+00   4.622174E+00   2.203589E+00   1.768528E+00   2.303100E+00   1.891283E+00   1.146391E+00   9.245141E-01   8.671134E-01   8.326110E-01   8.414561E-01   9.487040E-01   1.207731E+00   1.646221E+00   2.208701E+00   2.754864E+00   3.198986E+00   3.586373E+00   3.238002E+00   1.916286E-01   1.946724E+00   1.232677E+00   3.738002E-02   2.493456E-01   1.546461E+01   5.054629E+01   8.248359E+00   2.124501E+00   4.414165E+00