# HFB6 package for  MODFLOW-2005, generated by Flopy.
         0         0      1520
         1        29        21        29        22        0.001
         2        29        21        29        22        0.001
         3        29        21        29        22        0.001
         4        29        21        29        22        0.001
         5        29        21        29        22        0.001
         6        29        21        29        22        0.001
         7        29        21        29        22        0.001
         8        29        21        29        22        0.001
         9        29        21        29        22        0.001
        10        29        21        29        22        0.001
        11        29        21        29        22        0.001
        12        29        21        29        22        0.001
        13        29        21        29        22        0.001
        14        29        21        29        22        0.001
        15        29        21        29        22        0.001
        16        29        21        29        22        0.001
        17        29        21        29        22        0.001
        18        29        21        29        22        0.001
        19        29        21        29        22        0.001
        20        29        21        29        22        0.001
         1        28        22        29        22        0.001
         2        28        22        29        22        0.001
         3        28        22        29        22        0.001
         4        28        22        29        22        0.001
         5        28        22        29        22        0.001
         6        28        22        29        22        0.001
         7        28        22        29        22        0.001
         8        28        22        29        22        0.001
         9        28        22        29        22        0.001
        10        28        22        29        22        0.001
        11        28        22        29        22        0.001
        12        28        22        29        22        0.001
        13        28        22        29        22        0.001
        14        28        22        29        22        0.001
        15        28        22        29        22        0.001
        16        28        22        29        22        0.001
        17        28        22        29        22        0.001
        18        28        22        29        22        0.001
        19        28        22        29        22        0.001
        20        28        22        29        22        0.001
         1        28        23        29        23        0.001
         2        28        23        29        23        0.001
         3        28        23        29        23        0.001
         4        28        23        29        23        0.001
         5        28        23        29        23        0.001
         6        28        23        29        23        0.001
         7        28        23        29        23        0.001
         8        28        23        29        23        0.001
         9        28        23        29        23        0.001
        10        28        23        29        23        0.001
        11        28        23        29        23        0.001
        12        28        23        29        23        0.001
        13        28        23        29        23        0.001
        14        28        23        29        23        0.001
        15        28        23        29        23        0.001
        16        28        23        29        23        0.001
        17        28        23        29        23        0.001
        18        28        23        29        23        0.001
        19        28        23        29        23        0.001
        20        28        23        29        23        0.001
         1        28        24        29        24        0.001
         2        28        24        29        24        0.001
         3        28        24        29        24        0.001
         4        28        24        29        24        0.001
         5        28        24        29        24        0.001
         6        28        24        29        24        0.001
         7        28        24        29        24        0.001
         8        28        24        29        24        0.001
         9        28        24        29        24        0.001
        10        28        24        29        24        0.001
        11        28        24        29        24        0.001
        12        28        24        29        24        0.001
        13        28        24        29        24        0.001
        14        28        24        29        24        0.001
        15        28        24        29        24        0.001
        16        28        24        29        24        0.001
        17        28        24        29        24        0.001
        18        28        24        29        24        0.001
        19        28        24        29        24        0.001
        20        28        24        29        24        0.001
         1        28        25        29        25        0.001
         2        28        25        29        25        0.001
         3        28        25        29        25        0.001
         4        28        25        29        25        0.001
         5        28        25        29        25        0.001
         6        28        25        29        25        0.001
         7        28        25        29        25        0.001
         8        28        25        29        25        0.001
         9        28        25        29        25        0.001
        10        28        25        29        25        0.001
        11        28        25        29        25        0.001
        12        28        25        29        25        0.001
        13        28        25        29        25        0.001
        14        28        25        29        25        0.001
        15        28        25        29        25        0.001
        16        28        25        29        25        0.001
        17        28        25        29        25        0.001
        18        28        25        29        25        0.001
        19        28        25        29        25        0.001
        20        28        25        29        25        0.001
         1        28        26        29        26        0.001
         2        28        26        29        26        0.001
         3        28        26        29        26        0.001
         4        28        26        29        26        0.001
         5        28        26        29        26        0.001
         6        28        26        29        26        0.001
         7        28        26        29        26        0.001
         8        28        26        29        26        0.001
         9        28        26        29        26        0.001
        10        28        26        29        26        0.001
        11        28        26        29        26        0.001
        12        28        26        29        26        0.001
        13        28        26        29        26        0.001
        14        28        26        29        26        0.001
        15        28        26        29        26        0.001
        16        28        26        29        26        0.001
        17        28        26        29        26        0.001
        18        28        26        29        26        0.001
        19        28        26        29        26        0.001
        20        28        26        29        26        0.001
         1        29        27        29        28        0.001
         2        29        27        29        28        0.001
         3        29        27        29        28        0.001
         4        29        27        29        28        0.001
         5        29        27        29        28        0.001
         6        29        27        29        28        0.001
         7        29        27        29        28        0.001
         8        29        27        29        28        0.001
         9        29        27        29        28        0.001
        10        29        27        29        28        0.001
        11        29        27        29        28        0.001
        12        29        27        29        28        0.001
        13        29        27        29        28        0.001
        14        29        27        29        28        0.001
        15        29        27        29        28        0.001
        16        29        27        29        28        0.001
        17        29        27        29        28        0.001
        18        29        27        29        28        0.001
        19        29        27        29        28        0.001
        20        29        27        29        28        0.001
         1        28        27        29        27        0.001
         2        28        27        29        27        0.001
         3        28        27        29        27        0.001
         4        28        27        29        27        0.001
         5        28        27        29        27        0.001
         6        28        27        29        27        0.001
         7        28        27        29        27        0.001
         8        28        27        29        27        0.001
         9        28        27        29        27        0.001
        10        28        27        29        27        0.001
        11        28        27        29        27        0.001
        12        28        27        29        27        0.001
        13        28        27        29        27        0.001
        14        28        27        29        27        0.001
        15        28        27        29        27        0.001
        16        28        27        29        27        0.001
        17        28        27        29        27        0.001
        18        28        27        29        27        0.001
        19        28        27        29        27        0.001
        20        28        27        29        27        0.001
         1        30        20        30        21        0.001
         2        30        20        30        21        0.001
         3        30        20        30        21        0.001
         4        30        20        30        21        0.001
         5        30        20        30        21        0.001
         6        30        20        30        21        0.001
         7        30        20        30        21        0.001
         8        30        20        30        21        0.001
         9        30        20        30        21        0.001
        10        30        20        30        21        0.001
        11        30        20        30        21        0.001
        12        30        20        30        21        0.001
        13        30        20        30        21        0.001
        14        30        20        30        21        0.001
        15        30        20        30        21        0.001
        16        30        20        30        21        0.001
        17        30        20        30        21        0.001
        18        30        20        30        21        0.001
        19        30        20        30        21        0.001
        20        30        20        30        21        0.001
         1        29        21        30        21        0.001
         2        29        21        30        21        0.001
         3        29        21        30        21        0.001
         4        29        21        30        21        0.001
         5        29        21        30        21        0.001
         6        29        21        30        21        0.001
         7        29        21        30        21        0.001
         8        29        21        30        21        0.001
         9        29        21        30        21        0.001
        10        29        21        30        21        0.001
        11        29        21        30        21        0.001
        12        29        21        30        21        0.001
        13        29        21        30        21        0.001
        14        29        21        30        21        0.001
        15        29        21        30        21        0.001
        16        29        21        30        21        0.001
        17        29        21        30        21        0.001
        18        29        21        30        21        0.001
        19        29        21        30        21        0.001
        20        29        21        30        21        0.001
         1        30        28        30        29        0.001
         2        30        28        30        29        0.001
         3        30        28        30        29        0.001
         4        30        28        30        29        0.001
         5        30        28        30        29        0.001
         6        30        28        30        29        0.001
         7        30        28        30        29        0.001
         8        30        28        30        29        0.001
         9        30        28        30        29        0.001
        10        30        28        30        29        0.001
        11        30        28        30        29        0.001
        12        30        28        30        29        0.001
        13        30        28        30        29        0.001
        14        30        28        30        29        0.001
        15        30        28        30        29        0.001
        16        30        28        30        29        0.001
        17        30        28        30        29        0.001
        18        30        28        30        29        0.001
        19        30        28        30        29        0.001
        20        30        28        30        29        0.001
         1        29        28        30        28        0.001
         2        29        28        30        28        0.001
         3        29        28        30        28        0.001
         4        29        28        30        28        0.001
         5        29        28        30        28        0.001
         6        29        28        30        28        0.001
         7        29        28        30        28        0.001
         8        29        28        30        28        0.001
         9        29        28        30        28        0.001
        10        29        28        30        28        0.001
        11        29        28        30        28        0.001
        12        29        28        30        28        0.001
        13        29        28        30        28        0.001
        14        29        28        30        28        0.001
        15        29        28        30        28        0.001
        16        29        28        30        28        0.001
        17        29        28        30        28        0.001
        18        29        28        30        28        0.001
        19        29        28        30        28        0.001
        20        29        28        30        28        0.001
         1        31        20        31        21        0.001
         2        31        20        31        21        0.001
         3        31        20        31        21        0.001
         4        31        20        31        21        0.001
         5        31        20        31        21        0.001
         6        31        20        31        21        0.001
         7        31        20        31        21        0.001
         8        31        20        31        21        0.001
         9        31        20        31        21        0.001
        10        31        20        31        21        0.001
        11        31        20        31        21        0.001
        12        31        20        31        21        0.001
        13        31        20        31        21        0.001
        14        31        20        31        21        0.001
        15        31        20        31        21        0.001
        16        31        20        31        21        0.001
        17        31        20        31        21        0.001
        18        31        20        31        21        0.001
        19        31        20        31        21        0.001
        20        31        20        31        21        0.001
         1        31        29        31        30        0.001
         2        31        29        31        30        0.001
         3        31        29        31        30        0.001
         4        31        29        31        30        0.001
         5        31        29        31        30        0.001
         6        31        29        31        30        0.001
         7        31        29        31        30        0.001
         8        31        29        31        30        0.001
         9        31        29        31        30        0.001
        10        31        29        31        30        0.001
        11        31        29        31        30        0.001
        12        31        29        31        30        0.001
        13        31        29        31        30        0.001
        14        31        29        31        30        0.001
        15        31        29        31        30        0.001
        16        31        29        31        30        0.001
        17        31        29        31        30        0.001
        18        31        29        31        30        0.001
        19        31        29        31        30        0.001
        20        31        29        31        30        0.001
         1        30        29        31        29        0.001
         2        30        29        31        29        0.001
         3        30        29        31        29        0.001
         4        30        29        31        29        0.001
         5        30        29        31        29        0.001
         6        30        29        31        29        0.001
         7        30        29        31        29        0.001
         8        30        29        31        29        0.001
         9        30        29        31        29        0.001
        10        30        29        31        29        0.001
        11        30        29        31        29        0.001
        12        30        29        31        29        0.001
        13        30        29        31        29        0.001
        14        30        29        31        29        0.001
        15        30        29        31        29        0.001
        16        30        29        31        29        0.001
        17        30        29        31        29        0.001
        18        30        29        31        29        0.001
        19        30        29        31        29        0.001
        20        30        29        31        29        0.001
         1        32        19        32        20        0.001
         2        32        19        32        20        0.001
         3        32        19        32        20        0.001
         4        32        19        32        20        0.001
         5        32        19        32        20        0.001
         6        32        19        32        20        0.001
         7        32        19        32        20        0.001
         8        32        19        32        20        0.001
         9        32        19        32        20        0.001
        10        32        19        32        20        0.001
        11        32        19        32        20        0.001
        12        32        19        32        20        0.001
        13        32        19        32        20        0.001
        14        32        19        32        20        0.001
        15        32        19        32        20        0.001
        16        32        19        32        20        0.001
        17        32        19        32        20        0.001
        18        32        19        32        20        0.001
        19        32        19        32        20        0.001
        20        32        19        32        20        0.001
         1        31        20        32        20        0.001
         2        31        20        32        20        0.001
         3        31        20        32        20        0.001
         4        31        20        32        20        0.001
         5        31        20        32        20        0.001
         6        31        20        32        20        0.001
         7        31        20        32        20        0.001
         8        31        20        32        20        0.001
         9        31        20        32        20        0.001
        10        31        20        32        20        0.001
        11        31        20        32        20        0.001
        12        31        20        32        20        0.001
        13        31        20        32        20        0.001
        14        31        20        32        20        0.001
        15        31        20        32        20        0.001
        16        31        20        32        20        0.001
        17        31        20        32        20        0.001
        18        31        20        32        20        0.001
        19        31        20        32        20        0.001
        20        31        20        32        20        0.001
         1        32        30        32        31        0.001
         2        32        30        32        31        0.001
         3        32        30        32        31        0.001
         4        32        30        32        31        0.001
         5        32        30        32        31        0.001
         6        32        30        32        31        0.001
         7        32        30        32        31        0.001
         8        32        30        32        31        0.001
         9        32        30        32        31        0.001
        10        32        30        32        31        0.001
        11        32        30        32        31        0.001
        12        32        30        32        31        0.001
        13        32        30        32        31        0.001
        14        32        30        32        31        0.001
        15        32        30        32        31        0.001
        16        32        30        32        31        0.001
        17        32        30        32        31        0.001
        18        32        30        32        31        0.001
        19        32        30        32        31        0.001
        20        32        30        32        31        0.001
         1        31        30        32        30        0.001
         2        31        30        32        30        0.001
         3        31        30        32        30        0.001
         4        31        30        32        30        0.001
         5        31        30        32        30        0.001
         6        31        30        32        30        0.001
         7        31        30        32        30        0.001
         8        31        30        32        30        0.001
         9        31        30        32        30        0.001
        10        31        30        32        30        0.001
        11        31        30        32        30        0.001
        12        31        30        32        30        0.001
        13        31        30        32        30        0.001
        14        31        30        32        30        0.001
        15        31        30        32        30        0.001
        16        31        30        32        30        0.001
        17        31        30        32        30        0.001
        18        31        30        32        30        0.001
        19        31        30        32        30        0.001
        20        31        30        32        30        0.001
         1        33        18        33        19        0.001
         2        33        18        33        19        0.001
         3        33        18        33        19        0.001
         4        33        18        33        19        0.001
         5        33        18        33        19        0.001
         6        33        18        33        19        0.001
         7        33        18        33        19        0.001
         8        33        18        33        19        0.001
         9        33        18        33        19        0.001
        10        33        18        33        19        0.001
        11        33        18        33        19        0.001
        12        33        18        33        19        0.001
        13        33        18        33        19        0.001
        14        33        18        33        19        0.001
        15        33        18        33        19        0.001
        16        33        18        33        19        0.001
        17        33        18        33        19        0.001
        18        33        18        33        19        0.001
        19        33        18        33        19        0.001
        20        33        18        33        19        0.001
         1        32        19        33        19        0.001
         2        32        19        33        19        0.001
         3        32        19        33        19        0.001
         4        32        19        33        19        0.001
         5        32        19        33        19        0.001
         6        32        19        33        19        0.001
         7        32        19        33        19        0.001
         8        32        19        33        19        0.001
         9        32        19        33        19        0.001
        10        32        19        33        19        0.001
        11        32        19        33        19        0.001
        12        32        19        33        19        0.001
        13        32        19        33        19        0.001
        14        32        19        33        19        0.001
        15        32        19        33        19        0.001
        16        32        19        33        19        0.001
        17        32        19        33        19        0.001
        18        32        19        33        19        0.001
        19        32        19        33        19        0.001
        20        32        19        33        19        0.001
         1        33        30        33        31        0.001
         2        33        30        33        31        0.001
         3        33        30        33        31        0.001
         4        33        30        33        31        0.001
         5        33        30        33        31        0.001
         6        33        30        33        31        0.001
         7        33        30        33        31        0.001
         8        33        30        33        31        0.001
         9        33        30        33        31        0.001
        10        33        30        33        31        0.001
        11        33        30        33        31        0.001
        12        33        30        33        31        0.001
        13        33        30        33        31        0.001
        14        33        30        33        31        0.001
        15        33        30        33        31        0.001
        16        33        30        33        31        0.001
        17        33        30        33        31        0.001
        18        33        30        33        31        0.001
        19        33        30        33        31        0.001
        20        33        30        33        31        0.001
         1        33        30        34        30        0.001
         2        33        30        34        30        0.001
         3        33        30        34        30        0.001
         4        33        30        34        30        0.001
         5        33        30        34        30        0.001
         6        33        30        34        30        0.001
         7        33        30        34        30        0.001
         8        33        30        34        30        0.001
         9        33        30        34        30        0.001
        10        33        30        34        30        0.001
        11        33        30        34        30        0.001
        12        33        30        34        30        0.001
        13        33        30        34        30        0.001
        14        33        30        34        30        0.001
        15        33        30        34        30        0.001
        16        33        30        34        30        0.001
        17        33        30        34        30        0.001
        18        33        30        34        30        0.001
        19        33        30        34        30        0.001
        20        33        30        34        30        0.001
         1        34        18        34        19        0.001
         2        34        18        34        19        0.001
         3        34        18        34        19        0.001
         4        34        18        34        19        0.001
         5        34        18        34        19        0.001
         6        34        18        34        19        0.001
         7        34        18        34        19        0.001