# WEL package for  MODFLOW-2005, generated by Flopy.
        30      1001 
        30         0 # stress period 1
         9        39        26      -0.1739036
        10        39        26      -0.2643005
        11        39        26     -0.11121549
        12        39        26     -0.66775215
        13        39        26       -71.95532
        14        39        26     -0.17985903
        15        39        26       -0.351961
        16        39        26      -4.9595275
        17        39        26      -1.3358289
        18        39        26  -0.00033112604
         9        31        24      -0.5946975
        10        31        24      -25.954447
        11        31        24      -38.788345
        12        31        24        -7.72353
        13        31        24      -0.3738714
        14        31        24       -3.660395
        15        31        24       -1.051551
        16        31        24    -0.065619156
        17        31        24      -1.3873799
        18        31        24      -0.4001646
         9        33        22      -3.3325932
        10        33        22      -7.4291196
        11        33        22       -32.79408
        12        33        22      -1.8460813
        13        33        22      -22.444939
        14        33        22       -4.267664
        15        33        22       -1.669387
        16        33        22       -4.277535
        17        33        22      -0.1669117
        18        33        22      -1.7716918
