# Name file for MT3D-USGS, generated by Flopy version 3.2.13.
LIST              16  Griftpark_Random1_mt.list
FTL               10  mt3d_link.ftl 
BTN               31  Griftpark_Random1_mt.btn 
ADV               32  Griftpark_Random1_mt.adv 
DSP               33  Griftpark_Random1_mt.dsp 
RCT               36  Griftpark_Random1_mt.rct 
SSM               34  Griftpark_Random1_mt.ssm 
GCG               35  Griftpark_Random1_mt.gcg 
